OEDI/SmartDS/Lines.dss
New Line.l(r:p9udt372lv-p9ulv1022) Units=km Length=0.061287 bus1=p9udt372lv.1.2 bus2=p9ulv1022.1.2 switch=n enabled=y phases=2 Linecode=1P_OH_AL_4/0_Zuzara_2

New Line.l(r:p9udt372lv-p9ulv1071) Units=km Length=0.0440896 bus1=p9udt372lv.1.2 bus2=p9ulv1071.1.2 switch=n enabled=y phases=2 Linecode=1P_OH_AL_4/0_Zuzara_2

New Line.l(r:p9udt372lv-p9ulv1147) Units=km Length=0.052553 bus1=p9udt372lv.1.2 bus2=p9ulv1147.1.2 switch=n enabled=y phases=2 Linecode=1P_OH_AL_4/0_Zuzara_2

New Line.l(r:p9udt372lv-p9ulv1315) Units=km Length=0.0583979 bus1=p9udt372lv.1.2 bus2=p9ulv1315.1.2 switch=n enabled=y phases=2 Linecode=1P_OH_AL_4/0_Zuzara_2

New Line.l(r:p9udm1772-p9ulv1132) Units=km Length=0.0140851 bus1=p9udm1772.1.2 bus2=p9ulv1132.1.2 switch=n enabled=y phases=2 Linecode=1P_UG_AL_1/0_Brenau_2

New Line.l(r:p9udm1772-p9udt433lv) Units=km Length=0.00956339 bus1=p9udt433lv.1.2 bus2=p9udm1772.1.2 switch=n enabled=y phases=2 Linecode=1P_UG_AL_1/0_Brenau_2

New Line.l(r:p9udm1773-p9ulv1695) Units=km Length=0.0141167 bus1=p9udm1773.1.2 bus2=p9ulv1695.1.2 switch=n enabled=y phases=2 Linecode=1P_UG_AL_2/0_Converse_2

New Line.l(r:p9udm1773-p9udt433lv) Units=km Length=0.00955344 bus1=p9udt433lv.1.2 bus2=p9udm1773.1.2 switch=n enabled=y phases=2 Linecode=1P_UG_AL_2/0_Converse_2

New Line.l(r:p9udt479lv-p9ulv1256) Units=km Length=0.0447304 bus1=p9udt479lv.1.2 bus2=p9ulv1256.1.2 switch=n enabled=y phases=2 Linecode=1P_OH_AL_4/0_Zuzara_2

New Line.l(r:p9udm2021-p9ulv1294) Units=km Length=0.0207423 bus1=p9udm2021.1.2 bus2=p9ulv1294.1.2 switch=n enabled=y phases=2 Linecode=1P_UG_AL_1/0_Brenau_2

New Line.l(r:p9udm2021-p9udt495lv) Units=km Length=0.0199118 bus1=p9udt495lv.1.2 bus2=p9udm2021.1.2 switch=n enabled=y phases=2 Linecode=1P_UG_AL_1/0_Brenau_2

New Line.l(r:p9udm2022-p9ulv1434) Units=km Length=0.016023 bus1=p9udm2022.1.2 bus2=p9ulv1434.1.2 switch=n enabled=y phases=2 Linecode=1P_UG_AL_1/0_Brenau_2

New Line.l(r:p9udm2022-p9udt495lv) Units=km Length=0.0199118 bus1=p9udt495lv.1.2 bus2=p9udm2022.1.2 switch=n enabled=y phases=2 Linecode=1P_UG_AL_1/0_Brenau_2

New Line.l(r:p9udm2024-p9ulv1486) Units=km Length=0.00344688 bus1=p9udm2024.1.2 bus2=p9ulv1486.1.2 switch=n enabled=y phases=2 Linecode=1P_UG_AL_1/0_Brenau_2

New Line.l(r:p9udm2024-p9ulv1689) Units=km Length=0.0356614 bus1=p9udm2024.1.2 bus2=p9ulv1689.1.2 switch=n enabled=y phases=2 Linecode=1P_UG_AL_2/0_Converse_2

New Line.l(r:p9udm2023-p9ulv1295) Units=km Length=0.02082 bus1=p9udm2023.1.2 bus2=p9ulv1295.1.2 switch=n enabled=y phases=2 Linecode=1P_UG_AL_1/0_Brenau_2

New Line.l(r:p9udm2023-p9udm2024) Units=km Length=0.00995085 bus1=p9udm2024.1.2 bus2=p9udm2023.1.2 switch=n enabled=y phases=2 Linecode=1P_UG_AL_1/0_Brenau_2

New Line.l(r:p9udm2024-p9udt496lv) Units=km Length=0.0199118 bus1=p9udt496lv.1.2 bus2=p9udm2024.1.2 switch=n enabled=y phases=2 Linecode=1P_UG_AL_4/0_Sweetbriar_2

New Line.l(r:p9udm2027-p9ulv121254) Units=km Length=0.0487459 bus1=p9udm2027.1.2 bus2=p9ulv121254.1.2 switch=n enabled=y phases=2 Linecode=1P_UG_AL_1/0_Brenau_2

New Line.l(r:p9udm2026-p9ulv1792) Units=km Length=0.0170015 bus1=p9udm2026.1.2 bus2=p9ulv1792.1.2 switch=n enabled=y phases=2 Linecode=1P_UG_AL_1/0_Brenau_2

New Line.l(r:p9udm2026-p9udm2027) Units=km Length=0.0199118 bus1=p9udm2027.1.2 bus2=p9udm2026.1.2 switch=n enabled=y phases=2 Linecode=1P_UG_AL_1/0_Brenau_2

New Line.l(r:p9udm2027-p9udt496lv) Units=km Length=0.019912 bus1=p9udt496lv.1.2 bus2=p9udm2027.1.2 switch=n enabled=y phases=2 Linecode=1P_UG_AL_1/0_Brenau_2

New Line.l(r:p9udt527lv-p9ulv1454) Units=km Length=0.0636355 bus1=p9udt527lv.1.2 bus2=p9ulv1454.1.2 switch=n enabled=y phases=2 Linecode=1P_UG_AL_1/0_Brenau_2

New Line.l(r:p9udt527lv-p9ulv1475) Units=km Length=0.0254027 bus1=p9udt527lv.1.2 bus2=p9ulv1475.1.2 switch=n enabled=y phases=2 Linecode=1P_UG_AL_1/0_Brenau_2

New Line.l(r:p9udt527lv-p9ulv1565) Units=km Length=0.0324871 bus1=p9udt527lv.1.2 bus2=p9ulv1565.1.2 switch=n enabled=y phases=2 Linecode=1P_UG_AL_1/0_Brenau_2

New Line.l(r:p9udt527lv-p9ulv1836) Units=km Length=0.0102985 bus1=p9udt527lv.1.2 bus2=p9ulv1836.1.2 switch=n enabled=y phases=2 Linecode=1P_UG_AL_1/0_Brenau_2

New Line.l(r:p9udm2150-p9ulv1460) Units=km Length=0.0342584 bus1=p9udm2150.1.2 bus2=p9ulv1460.1.2 switch=n enabled=y phases=2 Linecode=1P_UG_AL_1/0_Brenau_2

New Line.l(r:p9udm2150-p9udt528lv) Units=km Length=0.0286802 bus1=p9udt528lv.1.2 bus2=p9udm2150.1.2 switch=n enabled=y phases=2 Linecode=1P_UG_AL_1/0_Brenau_2

New Line.l(r:p9udm2151-p9ulv1539) Units=km Length=0.0273 bus1=p9udm2151.1.2 bus2=p9ulv1539.1.2 switch=n enabled=y phases=2 Linecode=1P_UG_AL_1/0_Brenau_2

New Line.l(r:p9udm2151-p9udt528lv) Units=km Length=0.038254500000000004 bus1=p9udt528lv.1.2 bus2=p9udm2151.1.2 switch=n enabled=y phases=2 Linecode=1P_UG_AL_1/0_Brenau_2

New Line.l(r:p9udt1719lv-p9ulv5879) Units=km Length=0.0127748 bus1=p9udt1719lv.1.2 bus2=p9ulv5879.1.2 switch=n enabled=y phases=2 Linecode=1P_UG_AL_1/0_Brenau_2

New Line.l(r:p9udm7184-p9ulv5881) Units=km Length=0.0133426 bus1=p9udm7184.1.2 bus2=p9ulv5881.1.2 switch=n enabled=y phases=2 Linecode=1P_UG_AL_1/0_Brenau_2

New Line.l(r:p9udm7184-p9ulv47964) Units=km Length=0.0140428 bus1=p9udm7184.1.2 bus2=p9ulv47964.1.2 switch=n enabled=y phases=2 Linecode=1P_UG_AL_1/0_Brenau_2

New Line.l(r:p9udm7184-p9udt1719lv) Units=km Length=0.02869 bus1=p9udt1719lv.1.2 bus2=p9udm7184.1.2 switch=n enabled=y phases=2 Linecode=1P_UG_AL_1/0_Brenau_2

New Line.l(r:p9udm7187-p9ulv47992) Units=km Length=0.019403 bus1=p9udm7187.1.2 bus2=p9ulv47992.1.2 switch=n enabled=y phases=2 Linecode=1P_UG_AL_1/0_Brenau_2

New Line.l(r:p9udm7185-p9ulv5955) Units=km Length=0.0136618 bus1=p9udm7185.1.2 bus2=p9ulv5955.1.2 switch=n enabled=y phases=2 Linecode=1P_UG_AL_1/0_Brenau_2

New Line.l(r:p9udm7185-p9udm7187) Units=km Length=0.00957001 bus1=p9udm7187.1.2 bus2=p9udm7185.1.2 switch=n enabled=y phases=2 Linecode=1P_UG_AL_1/0_Brenau_2

New Line.l(r:p9udm7187-p9udt1719lv) Units=km Length=0.019130000000000005 bus1=p9udt1719lv.1.2 bus2=p9udm7187.1.2 switch=n enabled=y phases=2 Linecode=1P_UG_AL_1/0_Brenau_2

New Line.l(r:p9udt1722lv-p9ulv5883) Units=km Length=0.0219297 bus1=p9udt1722lv.1.2 bus2=p9ulv5883.1.2 switch=n enabled=y phases=2 Linecode=1P_OH_AL_2/0_Rucina_2

New Line.l(r:p9udm7214-p9ulv5885) Units=km Length=0.023236100000000003 bus1=p9udm7214.1.2 bus2=p9ulv5885.1.2 switch=n enabled=y phases=2 Linecode=1P_UG_AL_1/0_Brenau_2

New Line.l(r:p9udm7214-p9udt1723lv) Units=km Length=0.0292501 bus1=p9udt1723lv.1.2 bus2=p9udm7214.1.2 switch=n enabled=y phases=2 Linecode=1P_UG_AL_1/0_Brenau_2

New Line.l(r:p9udm7218-p9ulv47994) Units=km Length=0.0207636 bus1=p9udm7218.1.2 bus2=p9ulv47994.1.2 switch=n enabled=y phases=2 Linecode=1P_UG_AL_1/0_Brenau_2

New Line.l(r:p9udm7215-p9ulv47938) Units=km Length=0.0389483 bus1=p9udm7215.1.2 bus2=p9ulv47938.1.2 switch=n enabled=y phases=2 Linecode=1P_UG_AL_1/0_Brenau_2

New Line.l(r:p9udm7215-p9ulv47980) Units=km Length=0.0358203 bus1=p9udm7215.1.2 bus2=p9ulv47980.1.2 switch=n enabled=y phases=2 Linecode=1P_UG_AL_1/0_Brenau_2

New Line.l(r:p9udm7215-p9ulv47991) Units=km Length=0.0146229 bus1=p9udm7215.1.2 bus2=p9ulv47991.1.2 switch=n enabled=y phases=2 Linecode=1P_UG_AL_1/0_Brenau_2

New Line.l(r:p9udm7215-p9udm7218) Units=km Length=0.00974005 bus1=p9udm7218.1.2 bus2=p9udm7215.1.2 switch=n enabled=y phases=2 Linecode=1P_UG_AL_1/0_Brenau_2

New Line.l(r:p9udm7218-p9udt1723lv) Units=km Length=0.00975005 bus1=p9udt1723lv.1.2 bus2=p9udm7218.1.2 switch=n enabled=y phases=2 Linecode=1P_UG_AL_1/0_Brenau_2

New Line.l(r:p9udm7227-p9ulv5890) Units=km Length=0.0128018 bus1=p9udm7227.1.2 bus2=p9ulv5890.1.2 switch=n enabled=y phases=2 Linecode=1P_UG_AL_1/0_Brenau_2

New Line.l(r:p9udm7228-p9ulv5928) Units=km Length=0.013229700000000002 bus1=p9udm7228.1.2 bus2=p9ulv5928.1.2 switch=n enabled=y phases=2 Linecode=1P_UG_AL_1/0_Brenau_2

New Line.l(r:p9udm7230-p9ulv47999) Units=km Length=0.013926 bus1=p9udm7230.1.2 bus2=p9ulv47999.1.2 switch=n enabled=y phases=2 Linecode=1P_UG_AL_1/0_Brenau_2

New Line.l(r:p9udm7228-p9udm7230) Units=km Length=0.0387012 bus1=p9udm7228.1.2 bus2=p9udm7230.1.2 switch=n enabled=y phases=2 Linecode=1P_UG_AL_1/0_Brenau_2

New Line.l(r:p9udm7227-p9udm7228) Units=km Length=0.00957088 bus1=p9udm7227.1.2 bus2=p9udm7228.1.2 switch=n enabled=y phases=2 Linecode=1P_UG_AL_1/0_Brenau_2

New Line.l(r:p9udm7227-p9udt1726lv) Units=km Length=0.00958075 bus1=p9udt1726lv.1.2 bus2=p9udm7227.1.2 switch=n enabled=y phases=2 Linecode=1P_UG_AL_2/0_Converse_2

New Line.l(r:p9udm7229-p9ulv5931) Units=km Length=0.0129994 bus1=p9udm7229.1.2 bus2=p9ulv5931.1.2 switch=n enabled=y phases=2 Linecode=1P_UG_AL_1/0_Brenau_2

New Line.l(r:p9udm7229-p9udt1726lv) Units=km Length=0.0383033 bus1=p9udt1726lv.1.2 bus2=p9udm7229.1.2 switch=n enabled=y phases=2 Linecode=1P_UG_AL_1/0_Brenau_2

New Line.l(r:p9udm7235-p9ulv47922) Units=km Length=0.0070112 bus1=p9udm7235.1.2 bus2=p9ulv47922.1.2 switch=n enabled=y phases=2 Linecode=1P_UG_AL_1/0_Brenau_2

New Line.l(r:p9udm7236-p9ulv47932) Units=km Length=0.0168032 bus1=p9udm7236.1.2 bus2=p9ulv47932.1.2 switch=n enabled=y phases=2 Linecode=1P_UG_AL_1/0_Brenau_2

New Line.l(r:p9udm7235-p9udm7236) Units=km Length=0.0651924 bus1=p9udm7235.1.2 bus2=p9udm7236.1.2 switch=n enabled=y phases=2 Linecode=1P_UG_AL_1/0_Brenau_2

New Line.l(r:p9udm7235-p9udt1728lv) Units=km Length=0.0175703 bus1=p9udt1728lv.1.2 bus2=p9udm7235.1.2 switch=n enabled=y phases=2 Linecode=1P_UG_AL_1/0_Brenau_2

New Line.l(r:p9udm7237-p9ulv47934) Units=km Length=0.0163031 bus1=p9udm7237.1.2 bus2=p9ulv47934.1.2 switch=n enabled=y phases=2 Linecode=1P_UG_AL_1/0_Brenau_2

New Line.l(r:p9udm7234-p9ulv5992) Units=km Length=0.00818086 bus1=p9udm7234.1.2 bus2=p9ulv5992.1.2 switch=n enabled=y phases=2 Linecode=1P_UG_AL_1/0_Brenau_2

New Line.l(r:p9udm7233-p9ulv5894) Units=km Length=0.0090553 bus1=p9udm7233.1.2 bus2=p9ulv5894.1.2 switch=n enabled=y phases=2 Linecode=1P_UG_AL_1/0_Brenau_2

New Line.l(r:p9udm7233-p9udm7234) Units=km Length=0.053351 bus1=p9udm7234.1.2 bus2=p9udm7233.1.2 switch=n enabled=y phases=2 Linecode=1P_UG_AL_1/0_Brenau_2

New Line.l(r:p9udm7234-p9udm7237) Units=km Length=0.0464795 bus1=p9udm7237.1.2 bus2=p9udm7234.1.2 switch=n enabled=y phases=2 Linecode=1P_UG_AL_1/0_Brenau_2

New Line.l(r:p9udm7237-p9udt1728lv) Units=km Length=0.0263604 bus1=p9udt1728lv.1.2 bus2=p9udm7237.1.2 switch=n enabled=y phases=2 Linecode=1P_UG_AL_1/0_Brenau_2

New Line.l(r:p9udt1732lv-p9ulv5902) Units=km Length=0.001 bus1=p9udt1732lv.1.2 bus2=p9ulv5902.1.2 switch=n enabled=y phases=2 Linecode=1P_UG_AL_1/0_Brenau_2

New Line.l(r:p9udt1741lv-p9ulv5966) Units=km Length=0.054464900000000004 bus1=p9udt1741lv.1.2 bus2=p9ulv5966.1.2 switch=n enabled=y phases=2 Linecode=1P_OH_AL_4/0_Zuzara_2

New Line.l(r:p9udm7275-p9ulv5989) Units=km Length=0.0129501 bus1=p9udm7275.1.2 bus2=p9ulv5989.1.2 switch=n enabled=y phases=2 Linecode=1P_UG_AL_1/0_Brenau_2

New Line.l(r:p9udm7275-p9udt1746lv) Units=km Length=0.019130000000000005 bus1=p9udt1746lv.1.2 bus2=p9udm7275.1.2 switch=n enabled=y phases=2 Linecode=1P_UG_AL_1/0_Brenau_2

New Line.l(r:p9udm7276-p9ulv47971) Units=km Length=0.0107654 bus1=p9udm7276.1.2 bus2=p9ulv47971.1.2 switch=n enabled=y phases=2 Linecode=1P_UG_AL_1/0_Brenau_2

New Line.l(r:p9udm7276-p9udt1746lv) Units=km Length=0.0966411 bus1=p9udt1746lv.1.2 bus2=p9udm7276.1.2 switch=n enabled=y phases=2 Linecode=1P_UG_AL_1/0_Brenau_2

New Line.l(r:p9udt7052lv-p9ulv25911) Units=km Length=0.001 bus1=p9udt7052lv.1.2 bus2=p9ulv25911.1.2 switch=n enabled=y phases=2 Linecode=1P_UG_AL_1/0_Brenau_2

New Line.l(r:p9udt7090lv-p9ulv26024) Units=km Length=0.0864152 bus1=p9udt7090lv.1.2 bus2=p9ulv26024.1.2 switch=n enabled=y phases=2 Linecode=1P_OH_AL_4/0_Zuzara_2

New Line.l(r:p9udm29036-p9ulv27634) Units=km Length=0.00915994 bus1=p9udm29036.1.2 bus2=p9ulv27634.1.2 switch=n enabled=y phases=2 Linecode=1P_OH_AL_2/0_Rucina_2

New Line.l(r:p9udm29036-p9udt7090lv) Units=km Length=0.0198103 bus1=p9udt7090lv.1.2 bus2=p9udm29036.1.2 switch=n enabled=y phases=2 Linecode=1P_OH_AL_2/0_Rucina_2

New Line.l(r:p9udt7095lv-p9ulv26041) Units=km Length=0.001 bus1=p9udt7095lv.1.2 bus2=p9ulv26041.1.2 switch=n enabled=y phases=2 Linecode=1P_OH_AL_4_Periwinkle_2

New Line.l(r:p9udt7096lv-p9ulv26047) Units=km Length=0.001 bus1=p9udt7096lv.1.2 bus2=p9ulv26047.1.2 switch=n enabled=y phases=2 Linecode=1P_UG_AL_1/0_Brenau_2

New Line.l(r:p9udt7534lv-p9ulv27556) Units=km Length=0.0289538 bus1=p9udt7534lv.1.2 bus2=p9ulv27556.1.2 switch=n enabled=y phases=2 Linecode=1P_UG_AL_1/0_Brenau_2

New Line.l(r:p9udm30568-p9ulv27569) Units=km Length=0.0285832 bus1=p9udm30568.1.2 bus2=p9ulv27569.1.2 switch=n enabled=y phases=2 Linecode=1P_UG_AL_1/0_Brenau_2

New Line.l(r:p9udm30568-p9udt7534lv) Units=km Length=0.0188006 bus1=p9udt7534lv.1.2 bus2=p9udm30568.1.2 switch=n enabled=y phases=2 Linecode=1P_UG_AL_1/0_Brenau_2

New Line.l(r:p9udm30569-p9ulv112358) Units=km Length=0.0199251 bus1=p9udm30569.1.2 bus2=p9ulv112358.1.2 switch=n enabled=y phases=2 Linecode=1P_UG_AL_1/0_Brenau_2

New Line.l(r:p9udm30569-p9udt7534lv) Units=km Length=0.00940026 bus1=p9udt7534lv.1.2 bus2=p9udm30569.1.2 switch=n enabled=y phases=2 Linecode=1P_UG_AL_1/0_Brenau_2

New Line.l(r:p9udt7535lv-p9ulv27557) Units=km Length=0.0446468 bus1=p9udt7535lv.1.2 bus2=p9ulv27557.1.2 switch=n enabled=y phases=2 Linecode=1P_UG_AL_1/0_Brenau_2

New Line.l(r:p9udt7535lv-p9ulv27594) Units=km Length=0.0281112 bus1=p9udt7535lv.1.2 bus2=p9ulv27594.1.2 switch=n enabled=y phases=2 Linecode=1P_UG_AL_1/0_Brenau_2

New Line.l(r:p9udt7535lv-p9ulv27616) Units=km Length=0.0629822 bus1=p9udt7535lv.1.2 bus2=p9ulv27616.1.2 switch=n enabled=y phases=2 Linecode=1P_UG_AL_1/0_Brenau_2

New Line.l(r:p9udm30573-p9ulv27558) Units=km Length=0.019184100000000003 bus1=p9udm30573.1.2 bus2=p9ulv27558.1.2 switch=n enabled=y phases=2 Linecode=1P_UG_AL_1/0_Brenau_2

New Line.l(r:p9udm30575-p9ulv27576) Units=km Length=0.017285 bus1=p9udm30575.1.2 bus2=p9ulv27576.1.2 switch=n enabled=y phases=2 Linecode=1P_UG_AL_1/0_Brenau_2

New Line.l(r:p9udm30573-p9udm30575) Units=km Length=0.0197878 bus1=p9udm30573.1.2 bus2=p9udm30575.1.2 switch=n enabled=y phases=2 Linecode=1P_UG_AL_1/0_Brenau_2

New Line.l(r:p9udm30573-p9udt7536lv) Units=km Length=0.008947340000000002 bus1=p9udt7536lv.1.2 bus2=p9udm30573.1.2 switch=n enabled=y phases=2 Linecode=1P_UG_AL_1/0_Brenau_2

New Line.l(r:p9udm30574-p9ulv27560) Units=km Length=0.018361900000000004 bus1=p9udm30574.1.2 bus2=p9ulv27560.1.2 switch=n enabled=y phases=2 Linecode=1P_UG_AL_1/0_Brenau_2

New Line.l(r:p9udm30576-p9ulv112378) Units=km Length=0.0160609 bus1=p9udm30576.1.2 bus2=p9ulv112378.1.2 switch=n enabled=y phases=2 Linecode=1P_UG_AL_1/0_Brenau_2

New Line.l(r:p9udm30574-p9udm30576) Units=km Length=0.00894072 bus1=p9udm30574.1.2 bus2=p9udm30576.1.2 switch=n enabled=y phases=2 Linecode=1P_UG_AL_1/0_Brenau_2

New Line.l(r:p9udm30574-p9udt7536lv) Units=km Length=0.00894072 bus1=p9udt7536lv.1.2 bus2=p9udm30574.1.2 switch=n enabled=y phases=2 Linecode=1P_UG_AL_1/0_Brenau_2

New Line.l(r:p9udm30582-p9ulv27562) Units=km Length=0.0242403 bus1=p9udm30582.1.2 bus2=p9ulv27562.1.2 switch=n enabled=y phases=2 Linecode=1P_UG_AL_1/0_Brenau_2

New Line.l(r:p9udm30582-p9ulv48011) Units=km Length=0.010939400000000002 bus1=p9udm30582.1.2 bus2=p9ulv48011.1.2 switch=n enabled=y phases=2 Linecode=1P_UG_AL_1/0_Brenau_2

New Line.l(r:p9udm30582-p9udt7539lv) Units=km Length=0.00945233 bus1=p9udt7539lv.1.2 bus2=p9udm30582.1.2 switch=n enabled=y phases=2 Linecode=1P_UG_AL_1/0_Brenau_2

New Line.l(r:p9udm30583-p9ulv47907) Units=km Length=0.023581 bus1=p9udm30583.1.2 bus2=p9ulv47907.1.2 switch=n enabled=y phases=2 Linecode=1P_UG_AL_1/0_Brenau_2

New Line.l(r:p9udm30583-p9udt7539lv) Units=km Length=0.028357 bus1=p9udt7539lv.1.2 bus2=p9udm30583.1.2 switch=n enabled=y phases=2 Linecode=1P_UG_AL_1/0_Brenau_2

New Line.l(r:p9udt7543lv-p9ulv27566) Units=km Length=0.0741741 bus1=p9udt7543lv.1.2 bus2=p9ulv27566.1.2 switch=n enabled=y phases=2 Linecode=1P_UG_AL_1/0_Brenau_2

New Line.l(r:p9udt7543lv-p9ulv27593) Units=km Length=0.060698 bus1=p9udt7543lv.1.2 bus2=p9ulv27593.1.2 switch=n enabled=y phases=2 Linecode=1P_UG_AL_1/0_Brenau_2

New Line.l(r:p9udt7543lv-p9ulv27602) Units=km Length=0.0195505 bus1=p9udt7543lv.1.2 bus2=p9ulv27602.1.2 switch=n enabled=y phases=2 Linecode=1P_UG_AL_1/0_Brenau_2

New Line.l(r:p9udm30597-p9ulv27591) Units=km Length=0.0211171 bus1=p9udm30597.1.2 bus2=p9ulv27591.1.2 switch=n enabled=y phases=2 Linecode=1P_UG_AL_1/0_Brenau_2

New Line.l(r:p9udm30597-p9udt7543lv) Units=km Length=0.00945005 bus1=p9udt7543lv.1.2 bus2=p9udm30597.1.2 switch=n enabled=y phases=2 Linecode=1P_UG_AL_1/0_Brenau_2

New Line.l(r:p9udt7544lv-p9ulv27567) Units=km Length=0.08058190000000001 bus1=p9udt7544lv.1.2 bus2=p9ulv27567.1.2 switch=n enabled=y phases=2 Linecode=1P_UG_AL_1/0_Brenau_2

New Line.l(r:p9udm30602-p9ulv27589) Units=km Length=0.00945542 bus1=p9udm30602.1.2 bus2=p9ulv27589.1.2 switch=n enabled=y phases=2 Linecode=1P_UG_AL_1/0_Brenau_2

New Line.l(r:p9udm30601-p9ulv27568) Units=km Length=0.0107864 bus1=p9udm30601.1.2 bus2=p9ulv27568.1.2 switch=n enabled=y phases=2 Linecode=1P_UG_AL_1/0_Brenau_2

New Line.l(r:p9udm30601-p9udm30602) Units=km Length=0.00988013 bus1=p9udm30602.1.2 bus2=p9udm30601.1.2 switch=n enabled=y phases=2 Linecode=1P_UG_AL_1/0_Brenau_2

New Line.l(r:p9udm30602-p9udt7545lv) Units=km Length=0.00989008 bus1=p9udt7545lv.1.2 bus2=p9udm30602.1.2 switch=n enabled=y phases=2 Linecode=1P_UG_AL_1/0_Brenau_2

New Line.l(r:p9udm30603-p9ulv27610) Units=km Length=0.00890757 bus1=p9udm30603.1.2 bus2=p9ulv27610.1.2 switch=n enabled=y phases=2 Linecode=1P_UG_AL_1/0_Brenau_2

New Line.l(r:p9udm30603-p9udt7545lv) Units=km Length=0.0296403 bus1=p9udt7545lv.1.2 bus2=p9udm30603.1.2 switch=n enabled=y phases=2 Linecode=1P_UG_AL_1/0_Brenau_2

New Line.l(r:p9udm30606-p9ulv27573) Units=km Length=0.0578649 bus1=p9udm30606.1.2 bus2=p9ulv27573.1.2 switch=n enabled=y phases=2 Linecode=1P_UG_AL_1/0_Brenau_2

New Line.l(r:p9udm30606-p9ulv27625) Units=km Length=0.0289539 bus1=p9udm30606.1.2 bus2=p9ulv27625.1.2 switch=n enabled=y phases=2 Linecode=1P_UG_AL_1/0_Brenau_2

New Line.l(r:p9udm30606-p9udt7548lv) Units=km Length=0.00945005 bus1=p9udt7548lv.1.2 bus2=p9udm30606.1.2 switch=n enabled=y phases=2 Linecode=1P_UG_AL_1/0_Brenau_2

New Line.l(r:p9udm30608-p9ulv112715) Units=km Length=0.0234676 bus1=p9udm30608.1.2 bus2=p9ulv112715.1.2 switch=n enabled=y phases=2 Linecode=1P_UG_AL_1/0_Brenau_2

New Line.l(r:p9udm30608-p9udt7548lv) Units=km Length=0.0661904 bus1=p9udt7548lv.1.2 bus2=p9udm30608.1.2 switch=n enabled=y phases=2 Linecode=1P_UG_AL_1/0_Brenau_2

New Line.l(r:p9udt7550lv-p9ulv27575) Units=km Length=0.044206600000000006 bus1=p9udt7550lv.1.2 bus2=p9ulv27575.1.2 switch=n enabled=y phases=2 Linecode=1P_OH_AL_4/0_Zuzara_2

New Line.l(r:p9udt7553lv-p9ulv112529) Units=km Length=0.0168683 bus1=p9udt7553lv.1.2 bus2=p9ulv112529.1.2 switch=n enabled=y phases=2 Linecode=1P_UG_AL_1/0_Brenau_2

New Line.l(r:p9udm30622-p9ulv27638) Units=km Length=0.027026900000000003 bus1=p9udm30622.1.2 bus2=p9ulv27638.1.2 switch=n enabled=y phases=2 Linecode=1P_UG_AL_1/0_Brenau_2

New Line.l(r:p9udm30620-p9ulv27580) Units=km Length=0.0227281 bus1=p9udm30620.1.2 bus2=p9ulv27580.1.2 switch=n enabled=y phases=2 Linecode=1P_UG_AL_1/0_Brenau_2

New Line.l(r:p9udm30621-p9ulv27606) Units=km Length=0.0244696 bus1=p9udm30621.1.2 bus2=p9ulv27606.1.2 switch=n enabled=y phases=2 Linecode=1P_UG_AL_1/0_Brenau_2

New Line.l(r:p9udm30620-p9udm30621) Units=km Length=0.0187712 bus1=p9udm30620.1.2 bus2=p9udm30621.1.2 switch=n enabled=y phases=2 Linecode=1P_UG_AL_1/0_Brenau_2

New Line.l(r:p9udm30620-p9udm30622) Units=km Length=0.0187712 bus1=p9udm30622.1.2 bus2=p9udm30620.1.2 switch=n enabled=y phases=2 Linecode=1P_UG_AL_1/0_Brenau_2

New Line.l(r:p9udm30622-p9udt7553lv) Units=km Length=0.009390640000000002 bus1=p9udt7553lv.1.2 bus2=p9udm30622.1.2 switch=n enabled=y phases=2 Linecode=1P_UG_AL_4/0_Sweetbriar_2

New Line.l(r:p9udm30623-p9ulv112327) Units=km Length=0.014774600000000002 bus1=p9udm30623.1.2 bus2=p9ulv112327.1.2 switch=n enabled=y phases=2 Linecode=1P_UG_AL_1/0_Brenau_2

New Line.l(r:p9udm30624-p9ulv112470) Units=km Length=0.0136637 bus1=p9udm30624.1.2 bus2=p9ulv112470.1.2 switch=n enabled=y phases=2 Linecode=1P_UG_AL_1/0_Brenau_2

New Line.l(r:p9udm30623-p9udm30624) Units=km Length=0.0657143 bus1=p9udm30623.1.2 bus2=p9udm30624.1.2 switch=n enabled=y phases=2 Linecode=1P_UG_AL_1/0_Brenau_2

New Line.l(r:p9udm30623-p9udt7553lv) Units=km Length=0.00938064 bus1=p9udt7553lv.1.2 bus2=p9udm30623.1.2 switch=n enabled=y phases=2 Linecode=1P_UG_AL_1/0_Brenau_2

New Line.l(r:p9udt7554lv-p9ulv27581) Units=km Length=0.0559829 bus1=p9udt7554lv.1.2 bus2=p9ulv27581.1.2 switch=n enabled=y phases=2 Linecode=1P_UG_AL_1/0_Brenau_2

New Line.l(r:p9udt7554lv-p9ulv27588) Units=km Length=0.0236324 bus1=p9udt7554lv.1.2 bus2=p9ulv27588.1.2 switch=n enabled=y phases=2 Linecode=1P_UG_AL_1/0_Brenau_2

New Line.l(r:p9udt7554lv-p9ulv27613) Units=km Length=0.061917 bus1=p9udt7554lv.1.2 bus2=p9ulv27613.1.2 switch=n enabled=y phases=2 Linecode=1P_UG_AL_1/0_Brenau_2

New Line.l(r:p9udt7559lv-p9ulv27590) Units=km Length=0.001 bus1=p9udt7559lv.1.2 bus2=p9ulv27590.1.2 switch=n enabled=y phases=2 Linecode=1P_OH_AL_4_Periwinkle_2

New Line.l(r:p9udt7567lv-p9ulv27608) Units=km Length=0.0262186 bus1=p9udt7567lv.1.2 bus2=p9ulv27608.1.2 switch=n enabled=y phases=2 Linecode=1P_UG_AL_1/0_Brenau_2

New Line.l(r:p9udt7567lv-p9ulv27627) Units=km Length=0.042315 bus1=p9udt7567lv.1.2 bus2=p9ulv27627.1.2 switch=n enabled=y phases=2 Linecode=1P_UG_AL_1/0_Brenau_2

New Line.l(r:p9udt7567lv-p9ulv27633) Units=km Length=0.04049160000000001 bus1=p9udt7567lv.1.2 bus2=p9ulv27633.1.2 switch=n enabled=y phases=2 Linecode=1P_UG_AL_1/0_Brenau_2

New Line.l(r:p9udt7568lv-p9ulv27609) Units=km Length=0.0123994 bus1=p9udt7568lv.1.2 bus2=p9ulv27609.1.2 switch=n enabled=y phases=2 Linecode=1P_OH_AL_2/0_Rucina_2

New Line.l(r:p9udm30658-p9ulv112346) Units=km Length=0.0150035 bus1=p9udm30658.1.2 bus2=p9ulv112346.1.2 switch=n enabled=y phases=2 Linecode=1P_UG_AL_1/0_Brenau_2

New Line.l(r:p9udm30658-p9ulv112624) Units=km Length=0.0200928 bus1=p9udm30658.1.2 bus2=p9ulv112624.1.2 switch=n enabled=y phases=2 Linecode=1P_UG_AL_1/0_Brenau_2

New Line.l(r:p9udm30656-p9ulv27615) Units=km Length=0.0250412 bus1=p9udm30656.1.2 bus2=p9ulv27615.1.2 switch=n enabled=y phases=2 Linecode=1P_UG_AL_1/0_Brenau_2

New Line.l(r:p9udm30656-p9udm30658) Units=km Length=0.0284606 bus1=p9udm30658.1.2 bus2=p9udm30656.1.2 switch=n enabled=y phases=2 Linecode=1P_UG_AL_1/0_Brenau_2

New Line.l(r:p9udm30658-p9udt7569lv) Units=km Length=0.0189604 bus1=p9udt7569lv.1.2 bus2=p9udm30658.1.2 switch=n enabled=y phases=2 Linecode=1P_UG_AL_2/0_Converse_2

New Line.l(r:p9udm30659-p9ulv112572) Units=km Length=0.0160209 bus1=p9udm30659.1.2 bus2=p9ulv112572.1.2 switch=n enabled=y phases=2 Linecode=1P_UG_AL_1/0_Brenau_2

New Line.l(r:p9udm30659-p9ulv112649) Units=km Length=0.0173618 bus1=p9udm30659.1.2 bus2=p9ulv112649.1.2 switch=n enabled=y phases=2 Linecode=1P_UG_AL_1/0_Brenau_2

New Line.l(r:p9udm30657-p9ulv112292) Units=km Length=0.0154355 bus1=p9udm30657.1.2 bus2=p9ulv112292.1.2 switch=n enabled=y phases=2 Linecode=1P_UG_AL_1/0_Brenau_2

New Line.l(r:p9udm30657-p9udm30659) Units=km Length=0.0284506 bus1=p9udm30659.1.2 bus2=p9udm30657.1.2 switch=n enabled=y phases=2 Linecode=1P_UG_AL_1/0_Brenau_2

New Line.l(r:p9udm30659-p9udt7569lv) Units=km Length=0.00949026 bus1=p9udt7569lv.1.2 bus2=p9udm30659.1.2 switch=n enabled=y phases=2 Linecode=1P_UG_AL_2/0_Converse_2

New Line.l(r:p9udt7572lv-p9ulv27623) Units=km Length=0.060737000000000006 bus1=p9udt7572lv.1.2 bus2=p9ulv27623.1.2 switch=n enabled=y phases=2 Linecode=1P_UG_AL_1/0_Brenau_2

New Line.l(r:p9udt7572lv-p9ulv27637) Units=km Length=0.0337085 bus1=p9udt7572lv.1.2 bus2=p9ulv27637.1.2 switch=n enabled=y phases=2 Linecode=1P_UG_AL_1/0_Brenau_2

New Line.l(r:p9udt7573lv-p9ulv112257) Units=km Length=0.011629000000000002 bus1=p9udt7573lv.1.2 bus2=p9ulv112257.1.2 switch=n enabled=y phases=2 Linecode=1P_UG_AL_1/0_Brenau_2

New Line.l(r:p9udm30668-p9ulv112371) Units=km Length=0.0194964 bus1=p9udm30668.1.2 bus2=p9ulv112371.1.2 switch=n enabled=y phases=2 Linecode=1P_UG_AL_1/0_Brenau_2

New Line.l(r:p9udm30666-p9ulv27628) Units=km Length=0.027671 bus1=p9udm30666.1.2 bus2=p9ulv27628.1.2 switch=n enabled=y phases=2 Linecode=1P_UG_AL_1/0_Brenau_2

New Line.l(r:p9udm30666-p9udm30668) Units=km Length=0.00946005 bus1=p9udm30668.1.2 bus2=p9udm30666.1.2 switch=n enabled=y phases=2 Linecode=1P_UG_AL_1/0_Brenau_2

New Line.l(r:p9udm30668-p9udt7573lv) Units=km Length=0.00946005 bus1=p9udt7573lv.1.2 bus2=p9udm30668.1.2 switch=n enabled=y phases=2 Linecode=1P_UG_AL_1/0_Brenau_2

New Line.l(r:p9udm30669-p9ulv112565) Units=km Length=0.0107603 bus1=p9udm30669.1.2 bus2=p9ulv112565.1.2 switch=n enabled=y phases=2 Linecode=1P_UG_AL_1/0_Brenau_2

New Line.l(r:p9udm30669-p9udt7573lv) Units=km Length=0.0378202 bus1=p9udt7573lv.1.2 bus2=p9udm30669.1.2 switch=n enabled=y phases=2 Linecode=1P_UG_AL_1/0_Brenau_2

New Line.l(r:p9udt11508lv-p9ulv42971) Units=km Length=0.0141432 bus1=p9udt11508lv.1.2 bus2=p9ulv42971.1.2 switch=n enabled=y phases=2 Linecode=1P_UG_AL_1/0_Brenau_2

New Line.l(r:p9udm46735-p9ulv43116) Units=km Length=0.013972 bus1=p9udm46735.1.2 bus2=p9ulv43116.1.2 switch=n enabled=y phases=2 Linecode=1P_UG_AL_1/0_Brenau_2

New Line.l(r:p9udm46734-p9ulv42987) Units=km Length=0.0196602 bus1=p9udm46734.1.2 bus2=p9ulv42987.1.2 switch=n enabled=y phases=2 Linecode=1P_UG_AL_1/0_Brenau_2

New Line.l(r:p9udm46734-p9udm46735) Units=km Length=0.0376887 bus1=p9udm46735.1.2 bus2=p9udm46734.1.2 switch=n enabled=y phases=2 Linecode=1P_UG_AL_1/0_Brenau_2

New Line.l(r:p9udm46735-p9udt11508lv) Units=km Length=0.022957600000000005 bus1=p9udt11508lv.1.2 bus2=p9udm46735.1.2 switch=n enabled=y phases=2 Linecode=1P_UG_AL_1/0_Brenau_2

New Line.l(r:p9udm46737-p9ulv43201) Units=km Length=0.013367100000000002 bus1=p9udm46737.1.2 bus2=p9ulv43201.1.2 switch=n enabled=y phases=2 Linecode=1P_UG_AL_1/0_Brenau_2

New Line.l(r:p9udm46732-p9ulv42969) Units=km Length=0.0126144 bus1=p9udm46732.1.2 bus2=p9ulv42969.1.2 switch=n enabled=y phases=2 Linecode=1P_UG_AL_1/0_Brenau_2

New Line.l(r:p9udm46736-p9ulv43142) Units=km Length=0.021260300000000003 bus1=p9udm46736.1.2 bus2=p9ulv43142.1.2 switch=n enabled=y phases=2 Linecode=1P_UG_AL_1/0_Brenau_2

New Line.l(r:p9udm46732-p9udm46736) Units=km Length=0.047104 bus1=p9udm46732.1.2 bus2=p9udm46736.1.2 switch=n enabled=y phases=2 Linecode=1P_UG_AL_1/0_Brenau_2

New Line.l(r:p9udm46732-p9udm46737) Units=km Length=0.008414870000000001 bus1=p9udm46737.1.2 bus2=p9udm46732.1.2 switch=n enabled=y phases=2 Linecode=1P_UG_AL_1/0_Brenau_2

New Line.l(r:p9udm46737-p9udt11508lv) Units=km Length=0.00765122 bus1=p9udt11508lv.1.2 bus2=p9udm46737.1.2 switch=n enabled=y phases=2 Linecode=1P_UG_AL_1/0_Brenau_2

New Line.l(r:p9udt11511lv-p9ulv43051) Units=km Length=0.0153858 bus1=p9udt11511lv.1.2 bus2=p9ulv43051.1.2 switch=n enabled=y phases=2 Linecode=1P_UG_AL_1/0_Brenau_2

New Line.l(r:p9udt11511lv-p9ulv118954) Units=km Length=0.0104548 bus1=p9udt11511lv.1.2 bus2=p9ulv118954.1.2 switch=n enabled=y phases=2 Linecode=1P_UG_AL_1/0_Brenau_2

New Line.l(r:p9udm46744-p9ulv42976) Units=km Length=0.0220874 bus1=p9udm46744.1.2 bus2=p9ulv42976.1.2 switch=n enabled=y phases=2 Linecode=1P_UG_AL_1/0_Brenau_2

New Line.l(r:p9udm46744-p9ulv42993) Units=km Length=0.0187115 bus1=p9udm46744.1.2 bus2=p9ulv42993.1.2 switch=n enabled=y phases=2 Linecode=1P_UG_AL_1/0_Brenau_2

New Line.l(r:p9udm46744-p9ulv43017) Units=km Length=0.0180138 bus1=p9udm46744.1.2 bus2=p9ulv43017.1.2 switch=n enabled=y phases=2 Linecode=1P_UG_AL_1/0_Brenau_2

New Line.l(r:p9udm46749-p9ulv43074) Units=km Length=0.0168923 bus1=p9udm46749.1.2 bus2=p9ulv43074.1.2 switch=n enabled=y phases=2 Linecode=1P_UG_AL_1/0_Brenau_2

New Line.l(r:p9udm46744-p9udm46749) Units=km Length=0.00967828 bus1=p9udm46744.1.2 bus2=p9udm46749.1.2 switch=n enabled=y phases=2 Linecode=1P_UG_AL_1/0_Brenau_2

New Line.l(r:p9udm46744-p9udt11511lv) Units=km Length=0.0183722 bus1=p9udt11511lv.1.2 bus2=p9udm46744.1.2 switch=n enabled=y phases=2 Linecode=1P_UG_AL_1/0_Brenau_2

New Line.l(r:p9udm46752-p9ulv43175) Units=km Length=0.0145092 bus1=p9udm46752.1.2 bus2=p9ulv43175.1.2 switch=n enabled=y phases=2 Linecode=1P_UG_AL_1/0_Brenau_2

New Line.l(r:p9udm46751-p9ulv43119) Units=km Length=0.013780500000000001 bus1=p9udm46751.1.2 bus2=p9ulv43119.1.2 switch=n enabled=y phases=2 Linecode=1P_UG_AL_1/0_Brenau_2

New Line.l(r:p9udm46751-p9ulv118895) Units=km Length=0.0110453 bus1=p9udm46751.1.2 bus2=p9ulv118895.1.2 switch=n enabled=y phases=2 Linecode=1P_UG_AL_1/0_Brenau_2

New Line.l(r:p9udm46747-p9ulv43030) Units=km Length=0.0142396 bus1=p9udm46747.1.2 bus2=p9ulv43030.1.2 switch=n enabled=y phases=2 Linecode=1P_UG_AL_1/0_Brenau_2

New Line.l(r:p9udm46750-p9ulv43079) Units=km Length=0.0138261 bus1=p9udm46750.1.2 bus2=p9ulv43079.1.2 switch=n enabled=y phases=2 Linecode=1P_UG_AL_1/0_Brenau_2

New Line.l(r:p9udm46747-p9udm46750) Units=km Length=0.0091861 bus1=p9udm46747.1.2 bus2=p9udm46750.1.2 switch=n enabled=y phases=2 Linecode=1P_UG_AL_1/0_Brenau_2

New Line.l(r:p9udm46747-p9udm46751) Units=km Length=0.0091861 bus1=p9udm46751.1.2 bus2=p9udm46747.1.2 switch=n enabled=y phases=2 Linecode=1P_UG_AL_1/0_Brenau_2

New Line.l(r:p9udm46751-p9udm46752) Units=km Length=0.018371 bus1=p9udm46752.1.2 bus2=p9udm46751.1.2 switch=n enabled=y phases=2 Linecode=1P_UG_AL_1/0_Brenau_2

New Line.l(r:p9udm46752-p9udt11511lv) Units=km Length=0.00917617 bus1=p9udt11511lv.1.2 bus2=p9udm46752.1.2 switch=n enabled=y phases=2 Linecode=1P_UG_AL_2/0_Converse_2

New Line.l(r:p9udm46760-p9ulv42991) Units=km Length=0.0150917 bus1=p9udm46760.1.2 bus2=p9ulv42991.1.2 switch=n enabled=y phases=2 Linecode=1P_UG_AL_1/0_Brenau_2

New Line.l(r:p9udm46760-p9udt11513lv) Units=km Length=0.00908269 bus1=p9udt11513lv.1.2 bus2=p9udm46760.1.2 switch=n enabled=y phases=2 Linecode=1P_UG_AL_1/0_Brenau_2

New Line.l(r:p9udm46762-p9ulv43126) Units=km Length=0.010345 bus1=p9udm46762.1.2 bus2=p9ulv43126.1.2 switch=n enabled=y phases=2 Linecode=1P_UG_AL_1/0_Brenau_2

New Line.l(r:p9udm46761-p9ulv43020) Units=km Length=0.0150058 bus1=p9udm46761.1.2 bus2=p9ulv43020.1.2 switch=n enabled=y phases=2 Linecode=1P_UG_AL_1/0_Brenau_2

New Line.l(r:p9udm46761-p9udm46762) Units=km Length=0.0187952 bus1=p9udm46762.1.2 bus2=p9udm46761.1.2 switch=n enabled=y phases=2 Linecode=1P_UG_AL_1/0_Brenau_2

New Line.l(r:p9udm46762-p9udt11513lv) Units=km Length=0.0278772 bus1=p9udt11513lv.1.2 bus2=p9udm46762.1.2 switch=n enabled=y phases=2 Linecode=1P_UG_AL_1/0_Brenau_2

New Line.l(r:p9udm46764-p9ulv43184) Units=km Length=0.0157047 bus1=p9udm46764.1.2 bus2=p9ulv43184.1.2 switch=n enabled=y phases=2 Linecode=1P_UG_AL_1/0_Brenau_2

New Line.l(r:p9udm46759-p9ulv42978) Units=km Length=0.00909479 bus1=p9udm46759.1.2 bus2=p9ulv42978.1.2 switch=n enabled=y phases=2 Linecode=1P_UG_AL_1/0_Brenau_2

New Line.l(r:p9udm46763-p9ulv43144) Units=km Length=0.00897394 bus1=p9udm46763.1.2 bus2=p9ulv43144.1.2 switch=n enabled=y phases=2 Linecode=1P_UG_AL_1/0_Brenau_2

New Line.l(r:p9udm46759-p9udm46763) Units=km Length=0.0281821 bus1=p9udm46759.1.2 bus2=p9udm46763.1.2 switch=n enabled=y phases=2 Linecode=1P_UG_AL_1/0_Brenau_2

New Line.l(r:p9udm46759-p9udm46764) Units=km Length=0.00939077 bus1=p9udm46764.1.2 bus2=p9udm46759.1.2 switch=n enabled=y phases=2 Linecode=1P_UG_AL_1/0_Brenau_2

New Line.l(r:p9udm46764-p9udt11513lv) Units=km Length=0.0184735 bus1=p9udt11513lv.1.2 bus2=p9udm46764.1.2 switch=n enabled=y phases=2 Linecode=1P_UG_AL_1/0_Brenau_2

New Line.l(r:p9udt11517lv-p9ulv112293) Units=km Length=0.013570700000000002 bus1=p9udt11517lv.1.2 bus2=p9ulv112293.1.2 switch=n enabled=y phases=2 Linecode=1P_UG_AL_1/0_Brenau_2

New Line.l(r:p9udm46784-p9ulv112426) Units=km Length=0.0144212 bus1=p9udm46784.1.2 bus2=p9ulv112426.1.2 switch=n enabled=y phases=2 Linecode=1P_UG_AL_1/0_Brenau_2

New Line.l(r:p9udm46785-p9ulv112581) Units=km Length=0.013795700000000001 bus1=p9udm46785.1.2 bus2=p9ulv112581.1.2 switch=n enabled=y phases=2 Linecode=1P_UG_AL_1/0_Brenau_2

New Line.l(r:p9udm46783-p9ulv112357) Units=km Length=0.014291 bus1=p9udm46783.1.2 bus2=p9ulv112357.1.2 switch=n enabled=y phases=2 Linecode=1P_UG_AL_1/0_Brenau_2

New Line.l(r:p9udm46783-p9ulv112829) Units=km Length=0.0146178 bus1=p9udm46783.1.2 bus2=p9ulv112829.1.2 switch=n enabled=y phases=2 Linecode=1P_UG_AL_1/0_Brenau_2

New Line.l(r:p9udm46788-p9ulv112821) Units=km Length=0.0140123 bus1=p9udm46788.1.2 bus2=p9ulv112821.1.2 switch=n enabled=y phases=2 Linecode=1P_UG_AL_1/0_Brenau_2

New Line.l(r:p9udm46783-p9udm46788) Units=km Length=0.00929613 bus1=p9udm46783.1.2 bus2=p9udm46788.1.2 switch=n enabled=y phases=2 Linecode=1P_UG_AL_1/0_Brenau_2

New Line.l(r:p9udm46783-p9udm46785) Units=km Length=0.00928729 bus1=p9udm46785.1.2 bus2=p9udm46783.1.2 switch=n enabled=y phases=2 Linecode=1P_UG_AL_1/0_Brenau_2

New Line.l(r:p9udm46784-p9udm46785) Units=km Length=0.00928619 bus1=p9udm46784.1.2 bus2=p9udm46785.1.2 switch=n enabled=y phases=2 Linecode=1P_UG_AL_2/0_Converse_2

New Line.l(r:p9udm46784-p9udt11517lv) Units=km Length=0.00929613 bus1=p9udt11517lv.1.2 bus2=p9udm46784.1.2 switch=n enabled=y phases=2 Linecode=1P_UG_AL_2/0_Converse_2

New Line.l(r:p9udm46786-p9ulv112603) Units=km Length=0.0127086 bus1=p9udm46786.1.2 bus2=p9ulv112603.1.2 switch=n enabled=y phases=2 Linecode=1P_UG_AL_1/0_Brenau_2

New Line.l(r:p9udm46787-p9ulv112780) Units=km Length=0.0155613 bus1=p9udm46787.1.2 bus2=p9ulv112780.1.2 switch=n enabled=y phases=2 Linecode=1P_UG_AL_1/0_Brenau_2

New Line.l(r:p9udm46781-p9ulv49085) Units=km Length=0.0137874 bus1=p9udm46781.1.2 bus2=p9ulv49085.1.2 switch=n enabled=y phases=2 Linecode=1P_UG_AL_1/0_Brenau_2

New Line.l(r:p9udm46779-p9ulv42982) Units=km Length=0.010504 bus1=p9udm46779.1.2 bus2=p9ulv42982.1.2 switch=n enabled=y phases=2 Linecode=1P_UG_AL_1/0_Brenau_2

New Line.l(r:p9udm46779-p9ulv48823) Units=km Length=0.0150101 bus1=p9udm46779.1.2 bus2=p9ulv48823.1.2 switch=n enabled=y phases=2 Linecode=1P_UG_AL_1/0_Brenau_2

New Line.l(r:p9udm46779-p9udm46781) Units=km Length=0.00977203 bus1=p9udm46781.1.2 bus2=p9udm46779.1.2 switch=n enabled=y phases=2 Linecode=1P_UG_AL_1/0_Brenau_2

New Line.l(r:p9udm46781-p9udm46787) Units=km Length=0.00976217 bus1=p9udm46787.1.2 bus2=p9udm46781.1.2 switch=n enabled=y phases=2 Linecode=1P_UG_AL_1/0_Brenau_2

New Line.l(r:p9udm46786-p9udm46787) Units=km Length=0.00929613 bus1=p9udm46786.1.2 bus2=p9udm46787.1.2 switch=n enabled=y phases=2 Linecode=1P_UG_AL_2/0_Converse_2

New Line.l(r:p9udm46786-p9udt11517lv) Units=km Length=0.00928729 bus1=p9udt11517lv.1.2 bus2=p9udm46786.1.2 switch=n enabled=y phases=2 Linecode=1P_UG_AL_4/0_Sweetbriar_2

New Line.l(r:p9udt11522lv-p9ulv43189) Units=km Length=0.0182879 bus1=p9udt11522lv.1.2 bus2=p9ulv43189.1.2 switch=n enabled=y phases=2 Linecode=1P_UG_AL_1/0_Brenau_2

New Line.l(r:p9udm46808-p9ulv43132) Units=km Length=0.0145232 bus1=p9udm46808.1.2 bus2=p9ulv43132.1.2 switch=n enabled=y phases=2 Linecode=1P_UG_AL_1/0_Brenau_2

New Line.l(r:p9udm46810-p9ulv43168) Units=km Length=0.0165961 bus1=p9udm46810.1.2 bus2=p9ulv43168.1.2 switch=n enabled=y phases=2 Linecode=1P_UG_AL_1/0_Brenau_2

New Line.l(r:p9udm46816-p9ulv55646) Units=km Length=0.0242074 bus1=p9udm46816.1.2 bus2=p9ulv55646.1.2 switch=n enabled=y phases=2 Linecode=1P_UG_AL_1/0_Brenau_2

New Line.l(r:p9udm46804-p9ulv43077) Units=km Length=0.0223438 bus1=p9udm46804.1.2 bus2=p9ulv43077.1.2 switch=n enabled=y phases=2 Linecode=1P_UG_AL_1/0_Brenau_2

New Line.l(r:p9udm46804-p9ulv55111) Units=km Length=0.013963 bus1=p9udm46804.1.2 bus2=p9ulv55111.1.2 switch=n enabled=y phases=2 Linecode=1P_UG_AL_1/0_Brenau_2

New Line.l(r:p9udm46813-p9ulv55088) Units=km Length=0.0219416 bus1=p9udm46813.1.2 bus2=p9ulv55088.1.2 switch=n enabled=y phases=2 Linecode=1P_UG_AL_1/0_Brenau_2

New Line.l(r:p9udm46815-p9ulv55325) Units=km Length=0.0167672 bus1=p9udm46815.1.2 bus2=p9ulv55325.1.2 switch=n enabled=y phases=2 Linecode=1P_UG_AL_1/0_Brenau_2

New Line.l(r:p9udm46813-p9udm46815) Units=km Length=0.00976037 bus1=p9udm46813.1.2 bus2=p9udm46815.1.2 switch=n enabled=y phases=2 Linecode=1P_UG_AL_1/0_Brenau_2

New Line.l(r:p9udm46804-p9udm46813) Units=km Length=0.0195182 bus1=p9udm46804.1.2 bus2=p9udm46813.1.2 switch=n enabled=y phases=2 Linecode=1P_UG_AL_1/0_Brenau_2

New Line.l(r:p9udm46804-p9udm46816) Units=km Length=0.0097591 bus1=p9udm46816.1.2 bus2=p9udm46804.1.2 switch=n enabled=y phases=2 Linecode=1P_UG_AL_1/0_Brenau_2

New Line.l(r:p9udm46810-p9udm46816) Units=km Length=0.00976902 bus1=p9udm46810.1.2 bus2=p9udm46816.1.2 switch=n enabled=y phases=2 Linecode=1P_UG_AL_1/0_Brenau_2

New Line.l(r:p9udm46808-p9udm46810) Units=km Length=0.0097591 bus1=p9udm46808.1.2 bus2=p9udm46810.1.2 switch=n enabled=y phases=2 Linecode=1P_UG_AL_2/0_Converse_2

New Line.l(r:p9udm46808-p9udt11522lv) Units=km Length=0.0097591 bus1=p9udt11522lv.1.2 bus2=p9udm46808.1.2 switch=n enabled=y phases=2 Linecode=1P_UG_AL_2/0_Converse_2

New Line.l(r:p9udm46812-p9ulv43199) Units=km Length=0.0181479 bus1=p9udm46812.1.2 bus2=p9ulv43199.1.2 switch=n enabled=y phases=2 Linecode=1P_UG_AL_1/0_Brenau_2

New Line.l(r:p9udm46805-p9ulv43078) Units=km Length=0.00602224 bus1=p9udm46805.1.2 bus2=p9ulv43078.1.2 switch=n enabled=y phases=2 Linecode=1P_UG_AL_1/0_Brenau_2

New Line.l(r:p9udm46807-p9ulv43122) Units=km Length=0.0125514 bus1=p9udm46807.1.2 bus2=p9ulv43122.1.2 switch=n enabled=y phases=2 Linecode=1P_UG_AL_1/0_Brenau_2

New Line.l(r:p9udm46807-p9ulv43145) Units=km Length=0.0183315 bus1=p9udm46807.1.2 bus2=p9ulv43145.1.2 switch=n enabled=y phases=2 Linecode=1P_UG_AL_1/0_Brenau_2

New Line.l(r:p9udm46802-p9ulv42992) Units=km Length=0.00903137 bus1=p9udm46802.1.2 bus2=p9ulv42992.1.2 switch=n enabled=y phases=2 Linecode=1P_UG_AL_1/0_Brenau_2

New Line.l(r:p9udm46802-p9ulv43063) Units=km Length=0.023616900000000003 bus1=p9udm46802.1.2 bus2=p9ulv43063.1.2 switch=n enabled=y phases=2 Linecode=1P_UG_AL_1/0_Brenau_2

New Line.l(r:p9udm46802-p9ulv43093) Units=km Length=0.00827391 bus1=p9udm46802.1.2 bus2=p9ulv43093.1.2 switch=n enabled=y phases=2 Linecode=1P_UG_AL_1/0_Brenau_2

New Line.l(r:p9udm46802-p9udm46807) Units=km Length=0.00997182 bus1=p9udm46807.1.2 bus2=p9udm46802.1.2 switch=n enabled=y phases=2 Linecode=1P_UG_AL_1/0_Brenau_2

New Line.l(r:p9udm46805-p9udm46807) Units=km Length=0.0197351 bus1=p9udm46805.1.2 bus2=p9udm46807.1.2 switch=n enabled=y phases=2 Linecode=1P_UG_AL_1/0_Brenau_2

New Line.l(r:p9udm46805-p9udm46812) Units=km Length=0.0097591 bus1=p9udm46812.1.2 bus2=p9udm46805.1.2 switch=n enabled=y phases=2 Linecode=1P_UG_AL_2/0_Converse_2

New Line.l(r:p9udm46812-p9udt11522lv) Units=km Length=0.0097591 bus1=p9udt11522lv.1.2 bus2=p9udm46812.1.2 switch=n enabled=y phases=2 Linecode=1P_UG_AL_2/0_Converse_2

New Line.l(r:p9udt11525lv-p9ulv43036) Units=km Length=0.017502800000000002 bus1=p9udt11525lv.1.2 bus2=p9ulv43036.1.2 switch=n enabled=y phases=2 Linecode=1P_UG_AL_1/0_Brenau_2

New Line.l(r:p9udm46821-p9ulv42996) Units=km Length=0.0138713 bus1=p9udm46821.1.2 bus2=p9ulv42996.1.2 switch=n enabled=y phases=2 Linecode=1P_UG_AL_1/0_Brenau_2

New Line.l(r:p9udm46821-p9ulv52624) Units=km Length=0.0176595 bus1=p9udm46821.1.2 bus2=p9ulv52624.1.2 switch=n enabled=y phases=2 Linecode=1P_UG_AL_1/0_Brenau_2

New Line.l(r:p9udm46828-p9ulv52697) Units=km Length=0.0136856 bus1=p9udm46828.1.2 bus2=p9ulv52697.1.2 switch=n enabled=y phases=2 Linecode=1P_UG_AL_1/0_Brenau_2

New Line.l(r:p9udm46826-p9ulv52570) Units=km Length=0.00819295 bus1=p9udm46826.1.2 bus2=p9ulv52570.1.2 switch=n enabled=y phases=2 Linecode=1P_UG_AL_1/0_Brenau_2

New Line.l(r:p9udm46830-p9ulv53075) Units=km Length=0.0125443 bus1=p9udm46830.1.2 bus2=p9ulv53075.1.2 switch=n enabled=y phases=2 Linecode=1P_UG_AL_1/0_Brenau_2

New Line.l(r:p9udm46826-p9udm46830) Units=km Length=0.026280500000000002 bus1=p9udm46826.1.2 bus2=p9udm46830.1.2 switch=n enabled=y phases=2 Linecode=1P_UG_AL_1/0_Brenau_2

New Line.l(r:p9udm46826-p9udm46828) Units=km Length=0.04574870000000001 bus1=p9udm46828.1.2 bus2=p9udm46826.1.2 switch=n enabled=y phases=2 Linecode=1P_UG_AL_1/0_Brenau_2

New Line.l(r:p9udm46821-p9udm46828) Units=km Length=0.00878301 bus1=p9udm46821.1.2 bus2=p9udm46828.1.2 switch=n enabled=y phases=2 Linecode=1P_UG_AL_1/0_Brenau_2

New Line.l(r:p9udm46821-p9udt11525lv) Units=km Length=0.00879275 bus1=p9udt11525lv.1.2 bus2=p9udm46821.1.2 switch=n enabled=y phases=2 Linecode=1P_UG_AL_2/0_Converse_2

New Line.l(r:p9udm46822-p9ulv43013) Units=km Length=0.0217694 bus1=p9udm46822.1.2 bus2=p9ulv43013.1.2 switch=n enabled=y phases=2 Linecode=1P_UG_AL_1/0_Brenau_2

New Line.l(r:p9udm46822-p9ulv43075) Units=km Length=0.0219399 bus1=p9udm46822.1.2 bus2=p9ulv43075.1.2 switch=n enabled=y phases=2 Linecode=1P_UG_AL_1/0_Brenau_2

New Line.l(r:p9udm46822-p9ulv43136) Units=km Length=0.020712 bus1=p9udm46822.1.2 bus2=p9ulv43136.1.2 switch=n enabled=y phases=2 Linecode=1P_UG_AL_1/0_Brenau_2

New Line.l(r:p9udm46822-p9ulv53010) Units=km Length=0.0212361 bus1=p9udm46822.1.2 bus2=p9ulv53010.1.2 switch=n enabled=y phases=2 Linecode=1P_UG_AL_1/0_Brenau_2

New Line.l(r:p9udm46822-p9udt11525lv) Units=km Length=0.00879301 bus1=p9udt11525lv.1.2 bus2=p9udm46822.1.2 switch=n enabled=y phases=2 Linecode=1P_UG_AL_2/0_Converse_2

New Line.l(r:p9udt11527lv-p9ulv49225) Units=km Length=0.014032000000000001 bus1=p9udt11527lv.1.2 bus2=p9ulv49225.1.2 switch=n enabled=y phases=2 Linecode=1P_UG_AL_1/0_Brenau_2

New Line.l(r:p9udm46835-p9ulv43076) Units=km Length=0.0136734 bus1=p9udm46835.1.2 bus2=p9ulv43076.1.2 switch=n enabled=y phases=2 Linecode=1P_UG_AL_1/0_Brenau_2

New Line.l(r:p9udm46835-p9ulv43154) Units=km Length=0.0138063 bus1=p9udm46835.1.2 bus2=p9ulv43154.1.2 switch=n enabled=y phases=2 Linecode=1P_UG_AL_1/0_Brenau_2

New Line.l(r:p9udm46834-p9ulv42999) Units=km Length=0.0109144 bus1=p9udm46834.1.2 bus2=p9ulv42999.1.2 switch=n enabled=y phases=2 Linecode=1P_UG_AL_1/0_Brenau_2

New Line.l(r:p9udm46834-p9ulv119276) Units=km Length=0.0123369 bus1=p9udm46834.1.2 bus2=p9ulv119276.1.2 switch=n enabled=y phases=2 Linecode=1P_UG_AL_1/0_Brenau_2

New Line.l(r:p9udm46843-p9ulv118930) Units=km Length=0.011560800000000001 bus1=p9udm46843.1.2 bus2=p9ulv118930.1.2 switch=n enabled=y phases=2 Linecode=1P_UG_AL_1/0_Brenau_2

New Line.l(r:p9udm46834-p9udm46843) Units=km Length=0.0186657 bus1=p9udm46834.1.2 bus2=p9udm46843.1.2 switch=n enabled=y phases=2 Linecode=1P_UG_AL_1/0_Brenau_2

New Line.l(r:p9udm46834-p9udm46835) Units=km Length=0.0178957 bus1=p9udm46835.1.2 bus2=p9udm46834.1.2 switch=n enabled=y phases=2 Linecode=1P_UG_AL_1/0_Brenau_2

New Line.l(r:p9udm46835-p9udt11527lv) Units=km Length=0.0435023 bus1=p9udt11527lv.1.2 bus2=p9udm46835.1.2 switch=n enabled=y phases=2 Linecode=1P_UG_AL_2/0_Converse_2

New Line.l(r:p9udm46837-p9ulv48989) Units=km Length=0.0142539 bus1=p9udm46837.1.2 bus2=p9ulv48989.1.2 switch=n enabled=y phases=2 Linecode=1P_UG_AL_1/0_Brenau_2

New Line.l(r:p9udm46839-p9ulv112267) Units=km Length=0.0143505 bus1=p9udm46839.1.2 bus2=p9ulv112267.1.2 switch=n enabled=y phases=2 Linecode=1P_UG_AL_1/0_Brenau_2

New Line.l(r:p9udm46839-p9ulv112338) Units=km Length=0.0136089 bus1=p9udm46839.1.2 bus2=p9ulv112338.1.2 switch=n enabled=y phases=2 Linecode=1P_UG_AL_1/0_Brenau_2

New Line.l(r:p9udm46841-p9ulv112481) Units=km Length=0.013502 bus1=p9udm46841.1.2 bus2=p9ulv112481.1.2 switch=n enabled=y phases=2 Linecode=1P_UG_AL_1/0_Brenau_2

New Line.l(r:p9udm46841-p9ulv112763) Units=km Length=0.0136835 bus1=p9udm46841.1.2 bus2=p9ulv112763.1.2 switch=n enabled=y phases=2 Linecode=1P_UG_AL_1/0_Brenau_2

New Line.l(r:p9udm46839-p9udm46841) Units=km Length=0.00987148 bus1=p9udm46839.1.2 bus2=p9udm46841.1.2 switch=n enabled=y phases=2 Linecode=1P_UG_AL_1/0_Brenau_2

New Line.l(r:p9udm46837-p9udm46839) Units=km Length=0.00987148 bus1=p9udm46837.1.2 bus2=p9udm46839.1.2 switch=n enabled=y phases=2 Linecode=1P_UG_AL_1/0_Brenau_2

New Line.l(r:p9udm46837-p9udt11527lv) Units=km Length=0.0098726 bus1=p9udt11527lv.1.2 bus2=p9udm46837.1.2 switch=n enabled=y phases=2 Linecode=1P_UG_AL_2/0_Converse_2

New Line.l(r:p9udt11533lv-p9ulv43009) Units=km Length=0.0401191 bus1=p9udt11533lv.1.2 bus2=p9ulv43009.1.2 switch=n enabled=y phases=2 Linecode=1P_OH_AL_4/0_Zuzara_2

New Line.l(r:p9udt11534lv-p9ulv122628) Units=km Length=0.0132528 bus1=p9udt11534lv.1.2 bus2=p9ulv122628.1.2 switch=n enabled=y phases=2 Linecode=1P_UG_AL_1/0_Brenau_2

New Line.l(r:p9udm46865-p9ulv122527) Units=km Length=0.013435300000000002 bus1=p9udm46865.1.2 bus2=p9ulv122527.1.2 switch=n enabled=y phases=2 Linecode=1P_UG_AL_1/0_Brenau_2

New Line.l(r:p9udm46864-p9ulv55662) Units=km Length=0.0131044 bus1=p9udm46864.1.2 bus2=p9ulv55662.1.2 switch=n enabled=y phases=2 Linecode=1P_UG_AL_1/0_Brenau_2

New Line.l(r:p9udm46861-p9ulv43010) Units=km Length=0.019201 bus1=p9udm46861.1.2 bus2=p9ulv43010.1.2 switch=n enabled=y phases=2 Linecode=1P_UG_AL_1/0_Brenau_2

New Line.l(r:p9udm46861-p9udm46864) Units=km Length=0.00976902 bus1=p9udm46864.1.2 bus2=p9udm46861.1.2 switch=n enabled=y phases=2 Linecode=1P_UG_AL_1/0_Brenau_2

New Line.l(r:p9udm46864-p9udm46865) Units=km Length=0.0097591 bus1=p9udm46865.1.2 bus2=p9udm46864.1.2 switch=n enabled=y phases=2 Linecode=1P_UG_AL_1/0_Brenau_2

New Line.l(r:p9udm46865-p9udt11534lv) Units=km Length=0.0097591 bus1=p9udt11534lv.1.2 bus2=p9udm46865.1.2 switch=n enabled=y phases=2 Linecode=1P_UG_AL_1/0_Brenau_2

New Line.l(r:p9udm46867-p9ulv122643) Units=km Length=0.012954 bus1=p9udm46867.1.2 bus2=p9ulv122643.1.2 switch=n enabled=y phases=2 Linecode=1P_UG_AL_1/0_Brenau_2

New Line.l(r:p9udm46863-p9ulv55297) Units=km Length=0.0216679 bus1=p9udm46863.1.2 bus2=p9ulv55297.1.2 switch=n enabled=y phases=2 Linecode=1P_UG_AL_1/0_Brenau_2

New Line.l(r:p9udm46862-p9ulv55221) Units=km Length=0.0153625 bus1=p9udm46862.1.2 bus2=p9ulv55221.1.2 switch=n enabled=y phases=2 Linecode=1P_UG_AL_1/0_Brenau_2

New Line.l(r:p9udm46862-p9udm46863) Units=km Length=0.00981416 bus1=p9udm46863.1.2 bus2=p9udm46862.1.2 switch=n enabled=y phases=2 Linecode=1P_UG_AL_1/0_Brenau_2

New Line.l(r:p9udm46863-p9udm46867) Units=km Length=0.0685772 bus1=p9udm46867.1.2 bus2=p9udm46863.1.2 switch=n enabled=y phases=2 Linecode=1P_UG_AL_1/0_Brenau_2

New Line.l(r:p9udm46867-p9udt11534lv) Units=km Length=0.0097591 bus1=p9udt11534lv.1.2 bus2=p9udm46867.1.2 switch=n enabled=y phases=2 Linecode=1P_UG_AL_1/0_Brenau_2

New Line.l(r:p9udt11538lv-p9ulv43016) Units=km Length=0.0203172 bus1=p9udt11538lv.1.2 bus2=p9ulv43016.1.2 switch=n enabled=y phases=2 Linecode=1P_UG_AL_1/0_Brenau_2

New Line.l(r:p9udt11538lv-p9ulv43044) Units=km Length=0.0220123 bus1=p9udt11538lv.1.2 bus2=p9ulv43044.1.2 switch=n enabled=y phases=2 Linecode=1P_UG_AL_1/0_Brenau_2

New Line.l(r:p9udt11538lv-p9ulv43097) Units=km Length=0.022013 bus1=p9udt11538lv.1.2 bus2=p9ulv43097.1.2 switch=n enabled=y phases=2 Linecode=1P_UG_AL_1/0_Brenau_2

New Line.l(r:p9udt11538lv-p9ulv43104) Units=km Length=0.0216728 bus1=p9udt11538lv.1.2 bus2=p9ulv43104.1.2 switch=n enabled=y phases=2 Linecode=1P_UG_AL_1/0_Brenau_2

New Line.l(r:p9udt11538lv-p9ulv43186) Units=km Length=0.0197103 bus1=p9udt11538lv.1.2 bus2=p9ulv43186.1.2 switch=n enabled=y phases=2 Linecode=1P_UG_AL_1/0_Brenau_2

New Line.l(r:p9udm46881-p9ulv43159) Units=km Length=0.0191557 bus1=p9udm46881.1.2 bus2=p9ulv43159.1.2 switch=n enabled=y phases=2 Linecode=1P_UG_AL_1/0_Brenau_2

New Line.l(r:p9udm46880-p9ulv43157) Units=km Length=0.0128123 bus1=p9udm46880.1.2 bus2=p9ulv43157.1.2 switch=n enabled=y phases=2 Linecode=1P_UG_AL_1/0_Brenau_2

New Line.l(r:p9udm46880-p9ulv43188) Units=km Length=0.0162352 bus1=p9udm46880.1.2 bus2=p9ulv43188.1.2 switch=n enabled=y phases=2 Linecode=1P_UG_AL_1/0_Brenau_2

New Line.l(r:p9udm46880-p9udm46881) Units=km Length=0.00907271 bus1=p9udm46881.1.2 bus2=p9udm46880.1.2 switch=n enabled=y phases=2 Linecode=1P_UG_AL_1/0_Brenau_2

New Line.l(r:p9udm46881-p9udt11538lv) Units=km Length=0.00908269 bus1=p9udt11538lv.1.2 bus2=p9udm46881.1.2 switch=n enabled=y phases=2 Linecode=1P_UG_AL_1/0_Brenau_2

New Line.l(r:p9udt11548lv-p9ulv112567) Units=km Length=0.0152679 bus1=p9udt11548lv.1.2 bus2=p9ulv112567.1.2 switch=n enabled=y phases=2 Linecode=1P_UG_AL_1/0_Brenau_2

New Line.l(r:p9udt11548lv-p9ulv112975) Units=km Length=0.0179153 bus1=p9udt11548lv.1.2 bus2=p9ulv112975.1.2 switch=n enabled=y phases=2 Linecode=1P_UG_AL_1/0_Brenau_2

New Line.l(r:p9udm46914-p9ulv112825) Units=km Length=0.015345 bus1=p9udm46914.1.2 bus2=p9ulv112825.1.2 switch=n enabled=y phases=2 Linecode=1P_UG_AL_1/0_Brenau_2

New Line.l(r:p9udm46914-p9ulv113379) Units=km Length=0.0158204 bus1=p9udm46914.1.2 bus2=p9ulv113379.1.2 switch=n enabled=y phases=2 Linecode=1P_UG_AL_1/0_Brenau_2

New Line.l(r:p9udm46913-p9ulv112788) Units=km Length=0.0151612 bus1=p9udm46913.1.2 bus2=p9ulv112788.1.2 switch=n enabled=y phases=2 Linecode=1P_UG_AL_1/0_Brenau_2

New Line.l(r:p9udm46911-p9ulv112591) Units=km Length=0.014960700000000002 bus1=p9udm46911.1.2 bus2=p9ulv112591.1.2 switch=n enabled=y phases=2 Linecode=1P_UG_AL_1/0_Brenau_2

New Line.l(r:p9udm46911-p9udm46913) Units=km Length=0.0177625 bus1=p9udm46913.1.2 bus2=p9udm46911.1.2 switch=n enabled=y phases=2 Linecode=1P_UG_AL_1/0_Brenau_2

New Line.l(r:p9udm46913-p9udm46914) Units=km Length=0.0177725 bus1=p9udm46914.1.2 bus2=p9udm46913.1.2 switch=n enabled=y phases=2 Linecode=1P_UG_AL_1/0_Brenau_2

New Line.l(r:p9udm46914-p9udt11548lv) Units=km Length=0.0177725 bus1=p9udt11548lv.1.2 bus2=p9udm46914.1.2 switch=n enabled=y phases=2 Linecode=1P_UG_AL_1/0_Brenau_2

New Line.l(r:p9udm46917-p9ulv113180) Units=km Length=0.0149237 bus1=p9udm46917.1.2 bus2=p9ulv113180.1.2 switch=n enabled=y phases=2 Linecode=1P_UG_AL_1/0_Brenau_2

New Line.l(r:p9udm46912-p9ulv112745) Units=km Length=0.014416 bus1=p9udm46912.1.2 bus2=p9ulv112745.1.2 switch=n enabled=y phases=2 Linecode=1P_UG_AL_1/0_Brenau_2

New Line.l(r:p9udm46909-p9ulv48991) Units=km Length=0.0151963 bus1=p9udm46909.1.2 bus2=p9ulv48991.1.2 switch=n enabled=y phases=2 Linecode=1P_UG_AL_1/0_Brenau_2

New Line.l(r:p9udm46908-p9ulv43031) Units=km Length=0.014247000000000001 bus1=p9udm46908.1.2 bus2=p9ulv43031.1.2 switch=n enabled=y phases=2 Linecode=1P_UG_AL_1/0_Brenau_2

New Line.l(r:p9udm46915-p9ulv112828) Units=km Length=0.0139405 bus1=p9udm46915.1.2 bus2=p9ulv112828.1.2 switch=n enabled=y phases=2 Linecode=1P_UG_AL_1/0_Brenau_2

New Line.l(r:p9udm46908-p9udm46915) Units=km Length=0.00879639 bus1=p9udm46908.1.2 bus2=p9udm46915.1.2 switch=n enabled=y phases=2 Linecode=1P_UG_AL_1/0_Brenau_2

New Line.l(r:p9udm46908-p9udm46909) Units=km Length=0.00877848 bus1=p9udm46909.1.2 bus2=p9udm46908.1.2 switch=n enabled=y phases=2 Linecode=1P_UG_AL_1/0_Brenau_2

New Line.l(r:p9udm46909-p9udm46912) Units=km Length=0.008774880000000002 bus1=p9udm46912.1.2 bus2=p9udm46909.1.2 switch=n enabled=y phases=2 Linecode=1P_UG_AL_1/0_Brenau_2

New Line.l(r:p9udm46912-p9udm46917) Units=km Length=0.00878422 bus1=p9udm46917.1.2 bus2=p9udm46912.1.2 switch=n enabled=y phases=2 Linecode=1P_UG_AL_1/0_Brenau_2

New Line.l(r:p9udm46917-p9udt11548lv) Units=km Length=0.00888173 bus1=p9udt11548lv.1.2 bus2=p9udm46917.1.2 switch=n enabled=y phases=2 Linecode=1P_UG_AL_2/0_Converse_2

New Line.l(r:p9udm46928-p9ulv43039) Units=km Length=0.0175183 bus1=p9udm46928.1.2 bus2=p9ulv43039.1.2 switch=n enabled=y phases=2 Linecode=1P_UG_AL_1/0_Brenau_2

New Line.l(r:p9udm46928-p9udt11552lv) Units=km Length=0.0095154 bus1=p9udt11552lv.1.2 bus2=p9udm46928.1.2 switch=n enabled=y phases=2 Linecode=1P_UG_AL_1/0_Brenau_2

New Line.l(r:p9udm46929-p9ulv43139) Units=km Length=0.0180035 bus1=p9udm46929.1.2 bus2=p9ulv43139.1.2 switch=n enabled=y phases=2 Linecode=1P_UG_AL_1/0_Brenau_2

New Line.l(r:p9udm46929-p9udt11552lv) Units=km Length=0.0095154 bus1=p9udt11552lv.1.2 bus2=p9udm46929.1.2 switch=n enabled=y phases=2 Linecode=1P_UG_AL_1/0_Brenau_2

New Line.l(r:p9udt11559lv-p9ulv43052) Units=km Length=0.0134145 bus1=p9udt11559lv.1.2 bus2=p9ulv43052.1.2 switch=n enabled=y phases=2 Linecode=1P_UG_AL_1/0_Brenau_2

New Line.l(r:p9udm46945-p9ulv43081) Units=km Length=0.0135285 bus1=p9udm46945.1.2 bus2=p9ulv43081.1.2 switch=n enabled=y phases=2 Linecode=1P_UG_AL_1/0_Brenau_2

New Line.l(r:p9udm46947-p9ulv43141) Units=km Length=0.013577 bus1=p9udm46947.1.2 bus2=p9ulv43141.1.2 switch=n enabled=y phases=2 Linecode=1P_UG_AL_1/0_Brenau_2

New Line.l(r:p9udm46945-p9udm46947) Units=km Length=0.00994554 bus1=p9udm46945.1.2 bus2=p9udm46947.1.2 switch=n enabled=y phases=2 Linecode=1P_UG_AL_1/0_Brenau_2

New Line.l(r:p9udm46945-p9udt11559lv) Units=km Length=0.0199093 bus1=p9udt11559lv.1.2 bus2=p9udm46945.1.2 switch=n enabled=y phases=2 Linecode=1P_UG_AL_1/0_Brenau_2

New Line.l(r:p9udm46948-p9ulv43197) Units=km Length=0.0175559 bus1=p9udm46948.1.2 bus2=p9ulv43197.1.2 switch=n enabled=y phases=2 Linecode=1P_UG_AL_1/0_Brenau_2

New Line.l(r:p9udm46946-p9ulv43082) Units=km Length=0.0121048 bus1=p9udm46946.1.2 bus2=p9ulv43082.1.2 switch=n enabled=y phases=2 Linecode=1P_UG_AL_1/0_Brenau_2

New Line.l(r:p9udm46944-p9ulv43057) Units=km Length=0.0116275 bus1=p9udm46944.1.2 bus2=p9ulv43057.1.2 switch=n enabled=y phases=2 Linecode=1P_UG_AL_1/0_Brenau_2

New Line.l(r:p9udm46944-p9udm46946) Units=km Length=0.0099447 bus1=p9udm46946.1.2 bus2=p9udm46944.1.2 switch=n enabled=y phases=2 Linecode=1P_UG_AL_1/0_Brenau_2

New Line.l(r:p9udm46946-p9udm46948) Units=km Length=0.0099555 bus1=p9udm46948.1.2 bus2=p9udm46946.1.2 switch=n enabled=y phases=2 Linecode=1P_UG_AL_1/0_Brenau_2

New Line.l(r:p9udm46948-p9udt11559lv) Units=km Length=0.00995466 bus1=p9udt11559lv.1.2 bus2=p9udm46948.1.2 switch=n enabled=y phases=2 Linecode=1P_UG_AL_1/0_Brenau_2

New Line.l(r:p9udt11592lv-p9ulv48927) Units=km Length=0.0134511 bus1=p9udt11592lv.1.2 bus2=p9ulv48927.1.2 switch=n enabled=y phases=2 Linecode=1P_UG_AL_1/0_Brenau_2

New Line.l(r:p9udm47007-p9ulv43178) Units=km Length=0.0311787 bus1=p9udm47007.1.2 bus2=p9ulv43178.1.2 switch=n enabled=y phases=2 Linecode=1P_UG_AL_1/0_Brenau_2

New Line.l(r:p9udm47007-p9ulv53222) Units=km Length=0.0127306 bus1=p9udm47007.1.2 bus2=p9ulv53222.1.2 switch=n enabled=y phases=2 Linecode=1P_UG_AL_1/0_Brenau_2

New Line.l(r:p9udm47006-p9ulv43160) Units=km Length=0.0357426 bus1=p9udm47006.1.2 bus2=p9ulv43160.1.2 switch=n enabled=y phases=2 Linecode=1P_UG_AL_1/0_Brenau_2

New Line.l(r:p9udm47006-p9ulv52700) Units=km Length=0.0139149 bus1=p9udm47006.1.2 bus2=p9ulv52700.1.2 switch=n enabled=y phases=2 Linecode=1P_UG_AL_1/0_Brenau_2

New Line.l(r:p9udm47015-p9ulv52924) Units=km Length=0.0136887 bus1=p9udm47015.1.2 bus2=p9ulv52924.1.2 switch=n enabled=y phases=2 Linecode=1P_UG_AL_1/0_Brenau_2

New Line.l(r:p9udm47013-p9ulv49207) Units=km Length=0.0126143 bus1=p9udm47013.1.2 bus2=p9ulv49207.1.2 switch=n enabled=y phases=2 Linecode=1P_UG_AL_1/0_Brenau_2

New Line.l(r:p9udm47013-p9udm47015) Units=km Length=0.0461393 bus1=p9udm47015.1.2 bus2=p9udm47013.1.2 switch=n enabled=y phases=2 Linecode=1P_UG_AL_1/0_Brenau_2

New Line.l(r:p9udm47006-p9udm47015) Units=km Length=0.0198534 bus1=p9udm47006.1.2 bus2=p9udm47015.1.2 switch=n enabled=y phases=2 Linecode=1P_UG_AL_1/0_Brenau_2

New Line.l(r:p9udm47006-p9udm47007) Units=km Length=0.00992018 bus1=p9udm47007.1.2 bus2=p9udm47006.1.2 switch=n enabled=y phases=2 Linecode=1P_UG_AL_1/0_Brenau_2

New Line.l(r:p9udm47007-p9udt11592lv) Units=km Length=0.00981589 bus1=p9udt11592lv.1.2 bus2=p9udm47007.1.2 switch=n enabled=y phases=2 Linecode=1P_UG_AL_2/0_Converse_2

New Line.l(r:p9udm47016-p9ulv52956) Units=km Length=0.00989165 bus1=p9udm47016.1.2 bus2=p9ulv52956.1.2 switch=n enabled=y phases=2 Linecode=1P_UG_AL_1/0_Brenau_2

New Line.l(r:p9udm47008-p9ulv48811) Units=km Length=0.01195 bus1=p9udm47008.1.2 bus2=p9ulv48811.1.2 switch=n enabled=y phases=2 Linecode=1P_UG_AL_1/0_Brenau_2

New Line.l(r:p9udm47009-p9ulv48912) Units=km Length=0.0132177 bus1=p9udm47009.1.2 bus2=p9ulv48912.1.2 switch=n enabled=y phases=2 Linecode=1P_UG_AL_1/0_Brenau_2

New Line.l(r:p9udm47009-p9ulv48945) Units=km Length=0.0154101 bus1=p9udm47009.1.2 bus2=p9ulv48945.1.2 switch=n enabled=y phases=2 Linecode=1P_UG_AL_1/0_Brenau_2

New Line.l(r:p9udm47009-p9ulv49073) Units=km Length=0.0136392 bus1=p9udm47009.1.2 bus2=p9ulv49073.1.2 switch=n enabled=y phases=2 Linecode=1P_UG_AL_1/0_Brenau_2

New Line.l(r:p9udm47008-p9udm47009) Units=km Length=0.0196218 bus1=p9udm47008.1.2 bus2=p9udm47009.1.2 switch=n enabled=y phases=2 Linecode=1P_UG_AL_1/0_Brenau_2

New Line.l(r:p9udm47008-p9udm47016) Units=km Length=0.00981589 bus1=p9udm47016.1.2 bus2=p9udm47008.1.2 switch=n enabled=y phases=2 Linecode=1P_UG_AL_2/0_Converse_2

New Line.l(r:p9udm47016-p9udt11592lv) Units=km Length=0.00980555 bus1=p9udt11592lv.1.2 bus2=p9udm47016.1.2 switch=n enabled=y phases=2 Linecode=1P_UG_AL_4/0_Sweetbriar_2

New Line.l(r:p9udt11594lv-p9ulv55229) Units=km Length=0.009522 bus1=p9udt11594lv.1.2 bus2=p9ulv55229.1.2 switch=n enabled=y phases=2 Linecode=1P_UG_AL_1/0_Brenau_2

New Line.l(r:p9udm47025-p9ulv55100) Units=km Length=0.011918800000000002 bus1=p9udm47025.1.2 bus2=p9ulv55100.1.2 switch=n enabled=y phases=2 Linecode=1P_UG_AL_1/0_Brenau_2

New Line.l(r:p9udm47025-p9ulv55506) Units=km Length=0.015332500000000002 bus1=p9udm47025.1.2 bus2=p9ulv55506.1.2 switch=n enabled=y phases=2 Linecode=1P_UG_AL_1/0_Brenau_2

New Line.l(r:p9udm47029-p9ulv55233) Units=km Length=0.0156859 bus1=p9udm47029.1.2 bus2=p9ulv55233.1.2 switch=n enabled=y phases=2 Linecode=1P_UG_AL_1/0_Brenau_2

New Line.l(r:p9udm47029-p9ulv55343) Units=km Length=0.0134653 bus1=p9udm47029.1.2 bus2=p9ulv55343.1.2 switch=n enabled=y phases=2 Linecode=1P_UG_AL_1/0_Brenau_2

New Line.l(r:p9udm47027-p9ulv55204) Units=km Length=0.015480300000000002 bus1=p9udm47027.1.2 bus2=p9ulv55204.1.2 switch=n enabled=y phases=2 Linecode=1P_UG_AL_1/0_Brenau_2

New Line.l(r:p9udm47027-p9ulv55595) Units=km Length=0.0122296 bus1=p9udm47027.1.2 bus2=p9ulv55595.1.2 switch=n enabled=y phases=2 Linecode=1P_UG_AL_1/0_Brenau_2

New Line.l(r:p9udm47037-p9ulv55654) Units=km Length=0.00958592 bus1=p9udm47037.1.2 bus2=p9ulv55654.1.2 switch=n enabled=y phases=2 Linecode=1P_OH_AL_2/0_Rucina_2

New Line.l(r:p9udm47027-p9udm47037) Units=km Length=0.0479825 bus1=p9udm47027.1.2 bus2=p9udm47037.1.2 switch=n enabled=y phases=2 Linecode=1P_OH_AL_4/0_Zuzara_2

New Line.l(r:p9udm47027-p9udm47029) Units=km Length=0.00951652 bus1=p9udm47029.1.2 bus2=p9udm47027.1.2 switch=n enabled=y phases=2 Linecode=1P_UG_AL_1/0_Brenau_2

New Line.l(r:p9udm47025-p9udm47029) Units=km Length=0.00951727 bus1=p9udm47025.1.2 bus2=p9udm47029.1.2 switch=n enabled=y phases=2 Linecode=1P_UG_AL_2/0_Converse_2

New Line.l(r:p9udm47025-p9udt11594lv) Units=km Length=0.0190438 bus1=p9udt11594lv.1.2 bus2=p9udm47025.1.2 switch=n enabled=y phases=2 Linecode=1P_UG_AL_4/0_Sweetbriar_2

New Line.l(r:p9udm47026-p9ulv55151) Units=km Length=0.0124144 bus1=p9udm47026.1.2 bus2=p9ulv55151.1.2 switch=n enabled=y phases=2 Linecode=1P_UG_AL_1/0_Brenau_2

New Line.l(r:p9udm47024-p9ulv43183) Units=km Length=0.0137236 bus1=p9udm47024.1.2 bus2=p9ulv43183.1.2 switch=n enabled=y phases=2 Linecode=1P_UG_AL_1/0_Brenau_2

New Line.l(r:p9udm47024-p9ulv55453) Units=km Length=0.011409 bus1=p9udm47024.1.2 bus2=p9ulv55453.1.2 switch=n enabled=y phases=2 Linecode=1P_UG_AL_1/0_Brenau_2

New Line.l(r:p9udm47024-p9ulv55501) Units=km Length=0.0240115 bus1=p9udm47024.1.2 bus2=p9ulv55501.1.2 switch=n enabled=y phases=2 Linecode=1P_UG_AL_1/0_Brenau_2

New Line.l(r:p9udm47024-p9ulv55556) Units=km Length=0.0149549 bus1=p9udm47024.1.2 bus2=p9ulv55556.1.2 switch=n enabled=y phases=2 Linecode=1P_UG_AL_1/0_Brenau_2

New Line.l(r:p9udm47024-p9ulv57465) Units=km Length=0.0139937 bus1=p9udm47024.1.2 bus2=p9ulv57465.1.2 switch=n enabled=y phases=2 Linecode=1P_UG_AL_1/0_Brenau_2

New Line.l(r:p9udm47042-p9ulv57652) Units=km Length=0.020608600000000005 bus1=p9udm47042.1.2 bus2=p9ulv57652.1.2 switch=n enabled=y phases=2 Linecode=1P_UG_AL_1/0_Brenau_2

...