OEDI/SmartDS/Loads.dss
New Load.load_p9ulv1022_1 conn=wye bus1=p9ulv1022.1 kV=0.12 Vminpu=0.8 Vmaxpu=1.2 model=1 kW=3.133603663599094 kvar=0.018922139033990728 Phases=1 yearly=com_kw_20991_pu

New Load.load_p9ulv1022_2 conn=wye bus1=p9ulv1022.2 kV=0.12 Vminpu=0.8 Vmaxpu=1.2 model=1 kW=3.133603663599094 kvar=0.018922139033990728 Phases=1 yearly=com_kw_20991_pu

New Load.load_p9ulv1071_1 conn=wye bus1=p9ulv1071.1 kV=0.12 Vminpu=0.8 Vmaxpu=1.2 model=1 kW=1.7101501378288513 kvar=0.4527501720520811 Phases=1 yearly=com_kw_17970_pu

New Load.load_p9ulv1071_2 conn=wye bus1=p9ulv1071.2 kV=0.12 Vminpu=0.8 Vmaxpu=1.2 model=1 kW=1.7101501378288513 kvar=0.4527501720520811 Phases=1 yearly=com_kw_17970_pu

New Load.load_p9ulv1132_1 conn=wye bus1=p9ulv1132.1 kV=0.12 Vminpu=0.8 Vmaxpu=1.2 model=1 kW=2.0462464292006315 kvar=0.5599056660717759 Phases=1 yearly=com_kw_1330_pu

New Load.load_p9ulv1132_2 conn=wye bus1=p9ulv1132.2 kV=0.12 Vminpu=0.8 Vmaxpu=1.2 model=1 kW=2.0462464292006315 kvar=0.5599056660717759 Phases=1 yearly=com_kw_1330_pu

New Load.load_p9ulv1147_1 conn=wye bus1=p9ulv1147.1 kV=0.12 Vminpu=0.8 Vmaxpu=1.2 model=1 kW=5.67088575765151 kvar=1.4725744530283946 Phases=1 yearly=com_kw_35614_pu

New Load.load_p9ulv1147_2 conn=wye bus1=p9ulv1147.2 kV=0.12 Vminpu=0.8 Vmaxpu=1.2 model=1 kW=5.67088575765151 kvar=1.4725744530283946 Phases=1 yearly=com_kw_35614_pu

New Load.load_p9ulv1256_1 conn=wye bus1=p9ulv1256.1 kV=0.12 Vminpu=0.8 Vmaxpu=1.2 model=1 kW=4.164684483515297 kvar=0.8919383655672628 Phases=1 yearly=res_kw_118_pu

New Load.load_p9ulv1256_2 conn=wye bus1=p9ulv1256.2 kV=0.12 Vminpu=0.8 Vmaxpu=1.2 model=1 kW=4.164684483515297 kvar=0.8919383655672628 Phases=1 yearly=res_kw_118_pu

New Load.load_p9ulv1294_1 conn=wye bus1=p9ulv1294.1 kV=0.12 Vminpu=0.8 Vmaxpu=1.2 model=1 kW=1.0350470871334572 kvar=0.31926954798908114 Phases=1 yearly=res_kw_12336_pu

New Load.load_p9ulv1294_2 conn=wye bus1=p9ulv1294.2 kV=0.12 Vminpu=0.8 Vmaxpu=1.2 model=1 kW=1.0350470871334572 kvar=0.31926954798908114 Phases=1 yearly=res_kw_12336_pu

New Load.load_p9ulv1295_1 conn=wye bus1=p9ulv1295.1 kV=0.12 Vminpu=0.8 Vmaxpu=1.2 model=1 kW=5.572051472862761 kvar=0.5265983188489483 Phases=1 yearly=res_kw_193_pu

New Load.load_p9ulv1295_2 conn=wye bus1=p9ulv1295.2 kV=0.12 Vminpu=0.8 Vmaxpu=1.2 model=1 kW=5.572051472862761 kvar=0.5265983188489483 Phases=1 yearly=res_kw_193_pu

New Load.load_p9ulv1315_1 conn=wye bus1=p9ulv1315.1 kV=0.12 Vminpu=0.8 Vmaxpu=1.2 model=1 kW=2.4684188652861323 kvar=0.9413190995271079 Phases=1 yearly=res_kw_13274_pu

New Load.load_p9ulv1315_2 conn=wye bus1=p9ulv1315.2 kV=0.12 Vminpu=0.8 Vmaxpu=1.2 model=1 kW=2.4684188652861323 kvar=0.9413190995271079 Phases=1 yearly=res_kw_13274_pu

New Load.load_p9ulv1434_1 conn=wye bus1=p9ulv1434.1 kV=0.12 Vminpu=0.8 Vmaxpu=1.2 model=1 kW=2.365256087534968 kvar=0.9406994095530364 Phases=1 yearly=res_kw_7227_pu

New Load.load_p9ulv1434_2 conn=wye bus1=p9ulv1434.2 kV=0.12 Vminpu=0.8 Vmaxpu=1.2 model=1 kW=2.365256087534968 kvar=0.9406994095530364 Phases=1 yearly=res_kw_7227_pu

New Load.load_p9ulv1454_1 conn=wye bus1=p9ulv1454.1 kV=0.12 Vminpu=0.8 Vmaxpu=1.2 model=1 kW=3.3729897643354136 kvar=0.8074671946641432 Phases=1 yearly=com_kw_39334_pu

New Load.load_p9ulv1454_2 conn=wye bus1=p9ulv1454.2 kV=0.12 Vminpu=0.8 Vmaxpu=1.2 model=1 kW=3.3729897643354136 kvar=0.8074671946641432 Phases=1 yearly=com_kw_39334_pu

New Load.load_p9ulv1460_1 conn=wye bus1=p9ulv1460.1 kV=0.12 Vminpu=0.8 Vmaxpu=1.2 model=1 kW=2.4146763306383106 kvar=0.6793582693447386 Phases=1 yearly=com_kw_39448_pu

New Load.load_p9ulv1460_2 conn=wye bus1=p9ulv1460.2 kV=0.12 Vminpu=0.8 Vmaxpu=1.2 model=1 kW=2.4146763306383106 kvar=0.6793582693447386 Phases=1 yearly=com_kw_39448_pu

New Load.load_p9ulv1475_1 conn=wye bus1=p9ulv1475.1 kV=0.12 Vminpu=0.8 Vmaxpu=1.2 model=1 kW=2.6009666033769583 kvar=0.30487867399122176 Phases=1 yearly=com_kw_33842_pu

New Load.load_p9ulv1475_2 conn=wye bus1=p9ulv1475.2 kV=0.12 Vminpu=0.8 Vmaxpu=1.2 model=1 kW=2.6009666033769583 kvar=0.30487867399122176 Phases=1 yearly=com_kw_33842_pu

New Load.load_p9ulv1486_1 conn=wye bus1=p9ulv1486.1 kV=0.12 Vminpu=0.8 Vmaxpu=1.2 model=1 kW=2.606959916668558 kvar=0.5550307077474157 Phases=1 yearly=com_kw_33605_pu

New Load.load_p9ulv1486_2 conn=wye bus1=p9ulv1486.2 kV=0.12 Vminpu=0.8 Vmaxpu=1.2 model=1 kW=2.606959916668558 kvar=0.5550307077474157 Phases=1 yearly=com_kw_33605_pu

New Load.load_p9ulv1539_1 conn=wye bus1=p9ulv1539.1 kV=0.12 Vminpu=0.8 Vmaxpu=1.2 model=1 kW=3.189766707780742 kvar=0.7894989280735729 Phases=1 yearly=com_kw_1282_pu

New Load.load_p9ulv1539_2 conn=wye bus1=p9ulv1539.2 kV=0.12 Vminpu=0.8 Vmaxpu=1.2 model=1 kW=3.189766707780742 kvar=0.7894989280735729 Phases=1 yearly=com_kw_1282_pu

New Load.load_p9ulv1565_1 conn=wye bus1=p9ulv1565.1 kV=0.12 Vminpu=0.8 Vmaxpu=1.2 model=1 kW=2.0904985594393217 kvar=0.5105756243535786 Phases=1 yearly=res_kw_12175_pu

...